
**** 03/03/25 18:47:37 **** PSpice 22.1.0 (15 January 2024) *** ID# 0 ********

 ** Profile: "SCHEMATIC1-sim_test"  [ C:\Users\15062\Desktop\design\test-pspicefiles\schematic1\sim_test.sim ] 


 ****     CIRCUIT DESCRIPTION


******************************************************************************




** Creating circuit file "sim_test.cir" 
** WARNING: THIS AUTOMATICALLY GENERATED FILE MAY BE OVERWRITTEN BY SUBSEQUENT SIMULATIONS

*Libraries: 
* Profile Libraries :
* Local Libraries :
* From [PSPICE NETLIST] section of D:\Cadence\Spb_data\cdssetup\OrCAD_PSpice\22.1.0\PSpice.ini file:
.lib "C:\Users\15062\Desktop\design\model\OPA656\OPA656.LIB" 
.lib "C:\Users\15062\Desktop\design\model\OPA333\OPAx333.LIB" 
.lib "C:\Users\15062\Desktop\design\model\OPA2735\OPAx735.LIB" 
.lib "C:\Users\15062\Desktop\design\model\OPAx180\OPAx180.LIB" 
.lib "D:\Cadence\SPB_22.1\tools\capture\library\pspice\CSD18532Q5\CSD18532Q5B.lib" 
.lib "C:\Users\15062\Desktop\design\model\CSD18540Q5B\CSD18540Q5B.lib" 
.lib "C:\Users\15062\Desktop\design\model\LM358-TI\lmx58_lm2904.lib" 
.lib "C:\Users\15062\Desktop\design\model\UCC27323\UCC3895_PSPICE_TRANS\ucc3895.lib" 
.lib "C:\Users\15062\Desktop\design\model\TLV3605\tlv3605.lib" 
.lib "D:\Cadence\SPB_22.1\tools\capture\library\pspice\design_hold_circuit\OPA388\OPAx388.LIB" 
.lib "D:\Cadence\SPB_22.1\tools\capture\library\pspice\design_hold_circuit\LMP7721\LMP7721.LIB" 
.lib "D:\Cadence\SPB_22.1\tools\capture\library\pspice\design_hold_circuit\REF5045\REF5045.LIB" 
.lib "D:\Cadence\SPB_22.1\tools\capture\library\pspice\design_hold_circuit\ADG1236\adg1236.lib" 
.lib "D:\Cadence\SPB_22.1\tools\capture\library\pspice\design_hold_circuit\THS3491\ths3491.lib" 
.lib "D:\Cadence\SPB_22.1\tools\capture\library\pspice\design_hold_circuit\CSD25404Q3\CSD25404Q3.lib" 
.lib "D:\Cadence\SPB_22.1\tools\capture\library\pspice\design_hold_circuit\CSD17573Q5B\CSD17573Q5B.lib" 
.lib "D:\Cadence\SPB_22.1\tools\capture\library\pspice\design_hold_circuit\TLV3603\tlv3603.lib" 
.lib "D:\Cadence\SPB_22.1\tools\capture\library\pspice\design_hold_circuit\REF5050\REF5050.LIB" 
.lib "D:\Cadence\SPB_22.1\tools\capture\library\pspice\REF5010_PSPICE_AIO\REF5010.LIB" 
.lib "D:\Cadence\SPB_22.1\tools\capture\library\pspice\sbomao2c\OPAx188.LIB" 
.lib "D:\Cadence\SPB_22.1\tools\capture\library\pspice\slpm140b\CSD17577Q5A.lib" 
.lib "D:\Cadence\SPB_22.1\tools\capture\library\pspice\REF5025_PSPICE_AIO\REF5025.LIB" 
.lib "nom.lib" 

*Analysis directives: 
.TRAN  0 4u 0 
.OPTIONS ADVCONV
.OPTIONS ITL1= 1000
.OPTIONS ITL2= 200
.PROBE V(alias(*)) I(alias(*)) W(alias(*)) D(alias(*)) NOISE(alias(*)) 
.INC "..\SCHEMATIC1.net" 



**** INCLUDING SCHEMATIC1.net ****
* source TEST
V_V1         VCC 0 5Vdc
V_V2         VSS 0 -5Vdc
V_V3         N54074 0 0.4Vdc
V_V4         N28616 0 4.5Vdc
C_C1         0 N28732  1n  TC=0,0 
R_R2         N32314 N29345  700 TC=0,0 
X_U1         N28732 N28616 N30371 VCC VCC VCC 0 N30724 N69582 TLV3605
X_Q2         N32846 N30724 N54074 BFG425W/PLP
R_R4         N32846 VCC  1k TC=0,0 
X_D1         N32314 N28732 BAT14-03w/INF
X_Q3         N76687 N69582 N54074 BFG425W/PLP
V_V10         N40704 0  
+PULSE 0 3.3 50n 1n 1n 1.5u 2u
X_U2         N40704 0 N40798 N40802 N40929 N76550 UCCX7324
C_C2         0 N40929  100n  TC=0,0 
C_C3         0 N40929  1u  TC=0,0 
I_I3         VCC N28732 DC 1uAdc  
X_U3         VCC N64950 0 N65048 N65052 REF5045
C_C4         0 N65048  1u  TC=0,0 
V_V12         VDD 0 12Vdc
V_V13         VEE 0 -12Vdc
C_C5         0 VCC  1u  TC=0,0 
C_C6         0 N65052  22u  TC=0,0 
R_R5         N29345 N76554  20 TC=0,0 
R_R6         N40929 VDD  1k TC=0,0 
R_R7         0 N40929  1k TC=0,0 
V_V14         N40798 0  
+PULSE 1.023 1.375 100n 200p 200p 20n 200n
X_B1         N76550 N32846 N76554 NE325S01/CEL
R_R8         N76687 VCC  1k TC=0,0 
X_Q4         N29345 N76687 0 BFG425W/PLP

**** RESUMING sim_test.cir ****
.END

WARNING(ORPSIM-15223): Library file C:\Users\15062\Desktop\design\model\OPA656\OPA656.LIB has changed since index file OPA656.ind was created.

WARNING(ORPSIM-15227): The timestamp changed from Sat Mar  1 22:04:32 2025 to Mon Mar  3 18:42:49 2025.

INFO(ORPSIM-15422): Making new index file OPA656.ind for library file OPA656.LIB.

Index has 50 entries from 1 file(s).

WARNING(ORPSIM-15223): Library file C:\Users\15062\Desktop\design\model\OPA333\OPAx333.LIB has changed since index file OPAx333.ind was created.

WARNING(ORPSIM-15227): The timestamp changed from Sat Mar  1 19:41:43 2025 to Mon Mar  3 18:42:49 2025.

INFO(ORPSIM-15422): Making new index file OPAx333.ind for library file OPAx333.LIB.

Index has 26 entries from 1 file(s).

WARNING(ORPSIM-15223): Library file C:\Users\15062\Desktop\design\model\OPA2735\OPAx735.LIB has changed since index file OPAx735.ind was created.

WARNING(ORPSIM-15227): The timestamp changed from Sat Mar  1 15:58:58 2025 to Mon Mar  3 18:42:49 2025.

INFO(ORPSIM-15422): Making new index file OPAx735.ind for library file OPAx735.LIB.

Index has 25 entries from 1 file(s).

WARNING(ORPSIM-15223): Library file C:\Users\15062\Desktop\design\model\OPAx180\OPAx180.LIB has changed since index file OPAx180.ind was created.

WARNING(ORPSIM-15227): The timestamp changed from Sat Mar  1 15:48:11 2025 to Mon Mar  3 18:42:49 2025.

INFO(ORPSIM-15422): Making new index file OPAx180.ind for library file OPAx180.LIB.

Index has 26 entries from 1 file(s).

WARNING(ORPSIM-15223): Library file C:\Users\15062\Desktop\design\model\CSD18540Q5B\CSD18540Q5B.lib has changed since index file CSD18540Q5B.ind was created.

WARNING(ORPSIM-15227): The timestamp changed from Sat Mar  1 15:23:08 2025 to Mon Mar  3 18:42:49 2025.

INFO(ORPSIM-15422): Making new index file CSD18540Q5B.ind for library file CSD18540Q5B.lib.

Index has 4 entries from 1 file(s).

WARNING(ORPSIM-15223): Library file C:\Users\15062\Desktop\design\model\LM358-TI\lmx58_lm2904.lib has changed since index file lmx58_lm2904.ind was created.

WARNING(ORPSIM-15227): The timestamp changed from Sat Mar  1 14:28:13 2025 to Mon Mar  3 18:42:49 2025.

INFO(ORPSIM-15422): Making new index file lmx58_lm2904.ind for library file lmx58_lm2904.lib.

Index has 18 entries from 1 file(s).

**** 03/03/25 18:47:37 **** PSpice 22.1.0 (15 January 2024) *** ID# 0 ********

 ** Profile: "SCHEMATIC1-sim_test"  [ C:\Users\15062\Desktop\design\test-pspicefiles\schematic1\sim_test.sim ] 


 ****     Diode MODEL PARAMETERS


******************************************************************************




               X_D1.D1         X_U3.DVN        X_U3.DIN        X_U3.DD         
          IS   45.266500E-12  100.000000E-18   10.000000E-15   10.000000E-15 
           N    1.082                                                        
          BV    7.2                                                          
         IBV    1.000000E-06                                                 
          RS    4.9                                                          
          TT    3.000000E-12                                                 
         CJO  161.710000E-15                                                 
          VJ     .224                                                        
           M     .1397                                                       
          EG     .73                                                         
         XTI    2.5                                                          
          KF                  105.000000E-18                                 


               X_U3.DL         
          IS    9.500000E-12 
           N    1.55         
         XTI    1.5          


**** 03/03/25 18:47:37 **** PSpice 22.1.0 (15 January 2024) *** ID# 0 ********

 ** Profile: "SCHEMATIC1-sim_test"  [ C:\Users\15062\Desktop\design\test-pspicefiles\schematic1\sim_test.sim ] 


 ****     BJT MODEL PARAMETERS


******************************************************************************




               X_Q2.NPN        X_Q3.NPN        X_U3.Q          X_U3.QA         
               NPN             NPN             NPN             NPN             
       LEVEL    1               1               1               1            
          IS   47.170000E-18   47.170000E-18  100.000000E-18   14.500000E-18 
          BF  145             145             100             100            
          NF     .9934           .9934          1               1            
         VAF   31.12           31.12                                         
         IKF     .304            .304                                        
         ISE  300.200000E-15  300.200000E-15                                 
          NE    3               3                                            
          BR   11.37           11.37            1               1            
          NR     .985            .985           1               1            
         VAR    1.874           1.874                                        
         IKR     .121            .121                                        
         ISC  484.800000E-18  484.800000E-18                                 
          NC    1.546           1.546                                        
         ISS    0               0               0               0            
          RB   14.41           14.41                                         
         RBM    6.175           6.175                                        
          RE     .1779           .1779          0               0            
          RC    1.78            1.78            0               0            
         CJE  310.900000E-15  310.900000E-15    0               0            
         VJE     .9              .9              .75             .75         
         MJE     .3456           .3456                                       
         CJC  137.700000E-15  137.700000E-15    0               0            
         VJC     .5569           .5569           .75             .75         
         MJC     .2079           .2079           .33             .33         
        XCJC     .5              .5             1               1            
         CJS  667.500000E-15  667.500000E-15    0               0            
         VJS     .4183           .4183           .75             .75         
         MJS     .2391           .2391                                       
          FC     .5501           .5501                                       
          TF    4.122000E-12    4.122000E-12                                 
         XTF   68.2            68.2                                          
         VTF    2.004           2.004                                        
         ITF    1.525           1.525                                        
         XTB    1.5             1.5                                          
          KF    0               0               0               0            
          AF    1               1               1               1            
          CN    2.42            2.42            2.42            2.42         
           D     .87             .87             .87             .87         


               X_U3.QP         X_Q4.NPN        
               PNP             NPN             
       LEVEL    1               1            
          IS  100.000000E-18   47.170000E-18 
          BF  100             145            
          NF    1                .9934       
         VAF                   31.12         
         IKF                     .304        
         ISE                  300.200000E-15 
          NE                    3            
          BR    1              11.37         
          NR    1                .985        
         VAR                    1.874        
         IKR                     .121        
         ISC                  484.800000E-18 
          NC                    1.546        
         ISS    0               0            
          RB                   14.41         
         RBM                    6.175        
          RE    0                .1779       
          RC    0               1.78         
         CJE    0             310.900000E-15 
         VJE     .75             .9          
         MJE                     .3456       
         CJC    0             137.700000E-15 
         VJC     .75             .5569       
         MJC     .33             .2079       
        XCJC    1                .5          
         CJS    0             667.500000E-15 
         VJS     .75             .4183       
         MJS                     .2391       
          FC                     .5501       
          TF                    4.122000E-12 
         XTF                   68.2          
         VTF                    2.004        
         ITF                    1.525        
         XTB                    1.5          
          KF    0               0            
          AF    1               1            
          CN    2.2             2.42         
           D     .52             .87         


**** 03/03/25 18:47:37 **** PSpice 22.1.0 (15 January 2024) *** ID# 0 ********

 ** Profile: "SCHEMATIC1-sim_test"  [ C:\Users\15062\Desktop\design\test-pspicefiles\schematic1\sim_test.sim ] 


 ****     Junction FET MODEL PARAMETERS


******************************************************************************




               X_U3.JC         
               NJF             
         VTO   -2            
        BETA  100.000000E-06 
          IS    1.000000E-18 


**** 03/03/25 18:47:37 **** PSpice 22.1.0 (15 January 2024) *** ID# 0 ********

 ** Profile: "SCHEMATIC1-sim_test"  [ C:\Users\15062\Desktop\design\test-pspicefiles\schematic1\sim_test.sim ] 


 ****     MOSFET MODEL PARAMETERS


******************************************************************************




               X_U3.POUT       X_U3.NOUT       X_U3.PIN        X_U3.NIN        
               PMOS            NMOS            PMOS            NMOS            
       LEVEL    1               1               1               1            
           L  100.000000E-06  100.000000E-06  100.000000E-06  100.000000E-06 
           W  100.000000E-06  100.000000E-06  100.000000E-06  100.000000E-06 
         VTO    -.7              .7             -.7              .7          
          KP   60.000000E-06   60.000000E-06  200.000000E-06  200.000000E-06 
       GAMMA    0               0               0               0            
         PHI     .6              .6              .6              .6          
      LAMBDA    0               0               0               0            
          IS   10.000000E-15   10.000000E-15   10.000000E-15   10.000000E-15 
          JS    0               0               0               0            
          PB     .8              .8              .8              .8          
        PBSW     .8              .8              .8              .8          
          CJ    0               0               0               0            
        CJSW    0               0               0               0            
        CGSO    0               0               0               0            
        CGDO    0               0               0               0            
        CGBO    0               0               0               0            
         TOX    0               0               0               0            
          XJ    0               0               0               0            
       UCRIT   10.000000E+03   10.000000E+03   10.000000E+03   10.000000E+03 
      DIOMOD    1               1               1               1            
         VFB    0               0               0               0            
        LETA    0               0               0               0            
        WETA    0               0               0               0            
          U0    0               0               0               0            
        TEMP    0               0               0               0            
         VDD    5               5               5               5            
       XPART    0               0               0               0            


               X_U3.NSW        X_U3.HVP        X_U3.HVN        
               NMOS            PMOS            NMOS            
       LEVEL    1               1               1            
           L  100.000000E-06  100.000000E-06  100.000000E-06 
           W  100.000000E-06  100.000000E-06  100.000000E-06 
         VTO     .7             -.7              .7          
          KP  200.000000E-06    2.000000E-06    2.000000E-06 
       GAMMA    0               0               0            
         PHI     .6              .6              .6          
      LAMBDA    0               0               0            
          IS    1.000000E-18   10.000000E-15   10.000000E-15 
          JS    0               0               0            
          PB     .8              .8              .8          
        PBSW     .8              .8              .8          
          CJ    0               0               0            
        CJSW    0               0               0            
        CGSO    0               0               0            
        CGDO    0               0               0            
        CGBO    0               0               0            
         TOX    0               0               0            
          XJ    0               0               0            
       UCRIT   10.000000E+03   10.000000E+03   10.000000E+03 
      DIOMOD    1               1               1            
         VFB    0               0               0            
        LETA    0               0               0            
        WETA    0               0               0            
          U0    0               0               0            
        TEMP    0               0               0            
         VDD    5               5               5            
       XPART    0               0               0            


**** 03/03/25 18:47:37 **** PSpice 22.1.0 (15 January 2024) *** ID# 0 ********

 ** Profile: "SCHEMATIC1-sim_test"  [ C:\Users\15062\Desktop\design\test-pspicefiles\schematic1\sim_test.sim ] 


 ****     GaAs MESFET MODEL PARAMETERS


******************************************************************************




               X_B1.NE32500    
       LEVEL    1            
         VTO    -.8          
         VBI     .715        
       ALPHA    8            
        BETA     .103        
          RG    3            
         CGD   20.000000E-15 
         CGS  300.000000E-15 
         CDS  130.000000E-15 
          IS  300.000000E-15 
         TAU    4.000000E-12 
           N    1.22         
       DELTA    1            
       GAMMA     .08         
      VDELTA     .1          
          EG    1.43         
         XTI    3            


**** 03/03/25 18:47:37 **** PSpice 22.1.0 (15 January 2024) *** ID# 0 ********

 ** Profile: "SCHEMATIC1-sim_test"  [ C:\Users\15062\Desktop\design\test-pspicefiles\schematic1\sim_test.sim ] 


 ****     Voltage Controlled Switch MODEL PARAMETERS


******************************************************************************




               X_U1.X_U5.X_S16._S16 
         RON    1            
        ROFF    1.000000E+12 
         VON    0            
        VOFF    1            


               X_U1.X_U5.X_S6._S6 
         RON    1            
        ROFF    1.000000E+12 
         VON    2.5          
        VOFF    1.25         


               X_U1.X_U5.X_S3._S3 
         RON    1            
        ROFF    1.000000E+12 
         VON    2.5          
        VOFF    1.25         


               X_U1.X_U5.X_S17._S17 
         RON    1            
        ROFF    1.000000E+12 
         VON    0            
        VOFF    1            


               X_U1.X_U5.X_S4._S4 
         RON    1            
        ROFF    1.000000E+12 
         VON   -1.25         
        VOFF   -2.5          


               X_U1.X_U5.X_S5._S5 
         RON    1            
        ROFF    1.000000E+12 
         VON   -1.25         
        VOFF   -2.5          


Starting pseudo-transient algorithm.

INFO(ORPSIM-16594): To improve Pseudotransient Convergence and Performance, set following options to relax stabilization criteria for capacitor currents and inductor voltages: PTRANABSTOL=1e-5, PTRANVNTOL=1e-4

WARNING(ORPSIM-16534): Using high values of ITL4 for Speed Level > 0 may increase total simulation job time.

ERROR -- Convergence problem in transient bias point calculation


  Last node voltages tried were:

 NODE   VOLTAGE     NODE   VOLTAGE     NODE   VOLTAGE     NODE   VOLTAGE


(  VCC)     .0357  (  VDD)     .0858  (  VEE)    -.0858  (  VSS)    -.0357      

(N28616)     .0322 (N28732) 167.8E-06 (N29345) 541.5E-06 (N30371)     .0089     

(N30724)     .0073 (N32314) 541.5E-06 (N32846)     .0357 (N40704)    0.0000     

(N40798)     .0073 (N40802) 360.5E-06 (N40929)     .0014 (N54074)     .0029     

(N64950)    -.0055 (N65048)-118.1E-15 (N65052) 884.2E-15 (N69582)     .0098     

(N76550) 541.5E-06 (N76554) 541.5E-06 (N76687)     .0357 (X_B1.4)     .0357     

(X_B1.5) 541.5E-06 (X_B1.6) 541.5E-06 (X_B1.7)     .0357 (X_B1.8) 541.5E-06     

(X_B1.9) 541.5E-06 (X_D1.1) 541.5E-06 (X_D1.2) 167.8E-06 (X_Q2.4)     .0357     

(X_Q2.5)     .0073 (X_Q2.6)     .0029 (X_Q2.7)     .0029 (X_Q2.8)     .0029     

(X_Q3.4)     .0357 (X_Q3.5)     .0098 (X_Q3.6)     .0029 (X_Q3.7)     .0029     

(X_Q3.8)     .0029 (X_Q4.4) 541.5E-06 (X_Q4.5)     .0357 (X_Q4.6) 17.00E-15     

(X_Q4.7) 3.625E-09 (X_Q4.8) 42.66E-12 (X_U2.2)     .0014 (X_U2.3)    -.0352     

(X_U2.4)-492.3E-12 (X_U2.7)    -.0352 (X_U2.8)     .0715 (X_U2.9)     .0014     

(X_U3.7) 29.89E-09 (X_U3.8) 30.00E-18 (X_U3.9)    0.0000 (X_B1.10) 541.5E-06    

(X_B1.11) 541.5E-06                   (X_B1.12) 541.5E-06                       

(X_D1.10) 541.5E-06                   (X_U1.EN)    0.0000                       

(X_U2.10)    -.0354                   (X_U2.11)-494.9E-12                       

(X_U2.12)    -.0354                   (X_U2.15) 7.147E-09                       

(X_U2.17)     .0715                   (X_U2.18) 7.147E-09                       

(X_U2.19)    0.0000                   (X_U2.21)    0.0000                       

(X_U2.VA)    0.0000                   (X_U2.VB)    0.0000                       

(X_U3.10) 255.4E-06                   (X_U3.11) 255.4E-06                       

(X_U3.12) 255.4E-06                   (X_U3.13)-114.1E-24                       

(X_U3.14) 255.4E-06                   (X_U3.15) 255.4E-06                       

(X_U3.16)     .0357                   (X_U3.17)-2.457E-21                       

(X_U3.18) 155.2E-09                   (X_U3.19) 126.0E-09                       

(X_U3.20) 255.4E-06                   (X_U3.21) 255.4E-06                       

(X_U3.22) 11.83E-15                   (X_U3.23) 932.0E-15                       

(X_U3.24)     .4674                   (X_U3.25)     .4674                       

(X_U3.26)     .0730                   (X_U3.27)     .0730                       

(X_U3.28)-64.72E-12                   (X_U3.29)-64.72E-12                       

(X_U3.30) 3.717E-09                   (X_U3.31)-4.342E-12                       

(X_U3.32) 17.50E-12                   (X_U3.33) 1.825E-06                       

(X_U3.34)    0.0000                   (X_U3.35) 93.27E-15                       

(X_U3.36) 13.05E-12                   (X_U3.37) 197.8E-12                       

(X_U3.38)    0.0000                   (X_U3.39) 10.12E-18                       

(X_U3.40)-4.342E-12                   (X_U3.41)-462.6E-15                       

(X_U3.42) 26.56E-12                   (X_U3.43)-4.342E-12                       

(X_U3.44)-4.341E-12                   (X_U3.45) 912.7E-09                       

(X_U3.46) 155.2E-09                   (X_U3.47) 155.2E-09                       

(X_U3.48)-295.3E-12                   (X_U3.49) 73.16E-09                       

(X_U3.50) 330.5E-12                   (X_U3.51) 255.3E-06                       

(X_U3.52)    -.0012                   (X_U3.53) 725.0E-15                       

(X_U3.54) 3.717E-09                   (X_U3.55) 725.0E-15                       

(X_U3.56)-64.72E-12                   (X_U3.57)     .0014                       

(X_U3.58) 255.3E-06                   (X_U3.59) 73.16E-09                       

(X_U3.60) 912.7E-09                   (X_U3.61) 6.661E-15                       

(X_U3.62) 255.4E-06                   (X_U3.63) 255.4E-06                       

(X_U3.64) 3.717E-09                   (X_U3.65) 170.3E-06                       

(X_U3.66) 170.3E-06                   (X_U3.67) 255.4E-06                       

(X_U3.68) 170.3E-06                   (X_U3.69) 127.7E-06                       

(X_U3.70)    -.0069                   (X_U3.71) 255.4E-06                       

(X_U3.72) 255.4E-06                   (X_U3.73)    -.7182                       

(X_U3.74) 912.7E-09                   (X_U3.75) 297.2E-12                       

(X_U3.76)-295.3E-12                   (X_U3.77) 912.7E-09                       

(X_U3.78) 912.7E-09                   (X_U3.79)-261.9E-06                       

(X_U3.80)-262.0E-06                   (X_U3.81) 10.24E-06                       

(X_U3.82) 245.2E-06                   (X_U3.83)     .5253                       

(X_U3.84)     .5206                   (X_U3.85)     .5181                       

(X_U3.86) 2.448E-09                   (X_U3.87) 2.905E-09                       

(X_U3.88)     .0090                   (X_U3.89)     .0127                       

(X_U3.90) 93.49E-06                   (X_U3.91)     .0069                       

(X_U3.92)     .0091                   (X_U3.93)     .0127                       

(X_U3.94) 43.97E-06                   (X_U3.95)     .0071                       

(X_U3.96)     .0071                   (X_U3.97)    0.0000                       

(X_U3.98) 918.4E-15                   (X_U3.99)     .6211                       

(X_U3.100)     .6215                  (X_U3.101)     .6344                      

(X_U3.102)     .0035                  (X_U3.103)     .6012                      

(X_U3.104)     .0633                  (X_U3.105)     .6215                      

(X_U3.106)     .0367                  (X_U3.107)     .6329                      

(X_U3.108)     .0034                  (X_U3.109)     .6329                      

(X_U3.110)     .0245                  (X_U3.111)     .6344                      

(X_U3.112)     .0017                  (X_U3.113)     .0247                      

(X_U3.114)     .0045                  (X_U3.115)     .0485                      

(X_U3.116) 56.88E-06                  (X_U3.117) 406.5E-06                      

(X_U3.118)    8.5688                  (X_U3.119) 406.5E-06                      

(X_U3.120) 406.5E-06                  (X_U3.121)    8.5726                      

(X_U3.122)     .5272                  (X_U3.123)     .5226                      

(X_U3.124)     .5232                  (X_U3.125)     .5185                      

(X_U3.126)     .5158                  (X_U3.127)    -.0055                      

(X_U1.LATCH)    0.0000                (X_U1.VHYST)    0.0000                    

(X_U1.VLOGIC)     .0071               (X_U1.IN+BUFF) 1.199E-06                  

(X_U1.IN-BUFF) 229.9E-06              (X_U1.N891263)    0.0000                  

(X_U1.N891299)    0.0000              (X_U1.N892466) 4.773E-06                  

(X_U1.N892600) 1.825E-06              (X_U1.N893364)    0.0000                  

(X_U1.N893591) 255.4E-06              (X_U1.X_U3.VH)    0.0000                  

(X_U1.X_U5.1V)     .0071              (X_U1.X_U7.1V)     .0071                  

(X_U1.N8917111) 7.847E-09             (X_U1.X_U3.OUT) 1.825E-06                 

(X_U1.X_U7.POR) 51.08E-06             (X_U1.X_U9.VLE) 63.85E-06                 

(X_U1.X_U3.VMID) 912.7E-09            (X_U1.VEE_BUFFER)    0.0000               

(X_U1.X_U11.OUT2)    0.0000           (X_U1.VCCI_BUFFER) 255.4E-06              

(X_U1.X_U3.INNNEW) 1.643E-06          (X_U1.X_U4.N06672) 26.09E-09              

(X_U1.X_U5.X_U2.4)    0.0000          (X_U1.X_U9.N00729)     .0089              

(X_U1.X_U12.N11903) 255.4E-06         (X_U1.X_U12.N11909)    0.0000             

(X_U1.X_U12.N11937)    0.0000         (X_U1.X_U12.N11943) 255.4E-06             

(X_U1.X_U12.N12017)     .0357         (X_U1.X_U12.N12181)    0.0000             

(X_U1.X_U12.N12289)    0.0000         (X_U1.X_U12.VLOGIC)     .0357             

(X_U1.X_U12.X_U4.4)    0.0000         (X_U1.X_U12.X_U5.4)    0.0000             

(X_U1.X_U12.X_U6.3)    0.0000         (X_U1.X_U19.N20155)     .0024             

(X_U1.X_U19.N20415)    -.0021         (X_U1.X_U19.N20531)    0.0000             

(X_U1.X_U19.N20539)    -.0021         (X_U1.X_U19.N20826)    0.0000             

(X_U1.X_U19.N20833)    0.0000         (X_U1.X_U19.N20840)    0.0000             

(X_U1.X_U4.N065860) 13.05E-09         (X_U1.X_U5.N903216)     .0098             

(X_U1.X_U5.N903460)     .0098         (X_U1.X_U5.N903474)     .0073             

(X_U1.X_U5.N903506)     .0073         (X_U1.X_U5.N903742)     .0098             

(X_U1.X_U5.N903930)     .0073         (X_U1.X_U5.X_U10.4)    0.0000             

(X_U1.X_U7.N784593)     .0397         (X_U1.X_U7.N784683) 1.825E-06             

(X_U1.X_U7.N784697)    0.0000         (X_U1.X_U7.N784807) 51.08E-06             

(X_U1.X_U7.N784909)     .0171         (X_U1.X_U7.N785081)     .0171             

(X_U1.X_U7.X_U17.4)    0.0000         (X_U1.X_U19.N202710)     .0024            

(X_U1.X_U19.X_U24.6)    0.0000        (X_U1.X_U5.N9032561)     .0086            

(X_U1.X_U5.N9040901)     .0086        (X_U1.X_U7.X_U5.OUT2)    0.0000           

(X_U1.X_U12.X_U2.OUT2) 255.4E-06      (X_U1.X_U12.X_U3.OUT2) 255.4E-06          

(X_U1.X_U19.X_U1.OUT2)    0.0000      (X_U1.X_U5.OUTOFRANGE)    0.0000          

(X_U1.X_U7.X_U13.OUT1) 1.825E-06      (X_U1.X_U7.X_U15.OUT2) 51.08E-06          

(X_U1.X_U7.X_U16.OUT2) 51.08E-06      (X_U1.X_U19.X_U21.OUT2)    0.0000         

(X_U1.X_U19.X_U22.OUT2)    0.0000     (X_U1.X_U19.X_U23.OUT2)    0.0000         

(X_U1.X_U5.SHUTDOWN_OUT) 51.08E-06    (X_U1.SHUTDOWN_IQ_CONTROL)    0.0000      

(X_U1.X_LATCH_DEALY.N06081)    0.0000 (X_U1.X_U5.OUTPUT_SHUTDOWN)    0.0000     

(X_U1.X_LATCH_DEALY.N059950)    0.0000                                          

(X_U1.X_Supply_Currents.N833564) 37.16E-06                                      

(X_U1.X_Supply_Currents.N833572) 53.60E-06                                      

(X_U1.X_Supply_Currents.N833584) 714.7E-09                                      

(X_U1.X_Supply_Currents.N833598) 10.72E-06                                      

(X_U1.X_Supply_Currents.X_U1.VCC1)     .0357                                    

(X_U1.X_Supply_Currents.X_U2.VCC1)     .0357             


  These voltages failed to converge:

    V(N32314)                 =    1.330mV  \   541.46uV
    V(N29345)                 =    1.634mV  \   541.46uV
    V(N32846)                 =    36.28mV  \    35.73mV
    V(N76554)                 =    1.667mV  \   541.46uV
    V(X_U1.N892466)           =   171.46uV  \    4.773uV
    V(X_U1.IN+BUFF)           =   167.89uV  \    1.199uV
    V(X_Q2.4)                 =    36.28mV  \    35.73mV
    V(X_Q2.8)                 =    2.866mV  \    2.859mV
    V(X_D1.1)                 =    1.330mV  \   541.46uV
    V(X_D1.10)                =    1.330mV  \   541.46uV
    V(X_U2.4)                 =  -300.74uV  \  -492.31pV
    V(X_U2.2)                 =   -7.050mV  \    1.363mV
    V(X_U2.3)                 =  -155.78mV  \   -35.19mV
    V(N76550)                 =    1.698mV  \   541.45uV
    V(X_U2.9)                 =   -7.050mV  \    1.363mV
    V(X_U2.7)                 =    -4.998V  \   -35.19mV
    V(X_U2.10)                =  -155.96mV  \   -35.37mV
    V(N40802)                 =    1.523mV  \   360.48uV
    V(X_U2.11)                =  -300.72uV  \  -494.86pV
    V(X_U2.12)                =    -4.999V  \   -35.38mV
    V(X_B1.10)                =    1.676mV  \   541.46uV
    V(X_B1.7)                 =    36.28mV  \    35.73mV
    V(X_B1.11)                =    1.671mV  \   541.46uV
    V(X_B1.12)                =    1.671mV  \   541.46uV
    V(X_B1.9)                 =    1.667mV  \   541.46uV
    V(X_B1.8)                 =    1.681mV  \   541.46uV
    V(X_B1.4)                 =    36.28mV  \    35.73mV
    V(X_B1.5)                 =    1.681mV  \   541.46uV
    V(X_B1.6)                 =    1.667mV  \   541.46uV
    V(X_Q4.4)                 =    1.634mV  \   541.46uV
    V(X_Q4.8)                 =    14.84uV  \    42.66pV
    V(X_U1.X_U3.VMID)         =    17.87mV  \   912.67nV
    V(X_U1.VCCI_BUFFER)       =    35.74mV  \   255.40uV
    V(X_U1.X_U3.INNNEW)       =    32.16mV  \    1.643uV
    V(X_U1.N892600)           =    35.56mV  \    1.825uV
    V(X_U1.IN-BUFF)           =    32.16mV  \   229.86uV
    V(X_U1.X_U3.OUT)          =    35.74mV  \    1.825uV
    V(X_U1.X_U4.N065860)      =   225.89uV  \    13.05nV
    V(X_U1.N891263)           =   225.89uV  \         0V
    V(X_U1.X_U4.N06672)       =   508.26uV  \    26.09nV
    V(X_U1.X_U19.N202710)     =    37.88mV  \    2.400mV
    V(X_U1.X_U19.N20155)      =    37.88mV  \    2.400mV
    V(X_U1.X_U12.N11903)      =    35.74mV  \   255.40uV
    V(X_U1.X_U12.X_U3.OUT2)   =    35.74mV  \   255.40uV
    V(X_U1.N893591)           =    35.56mV  \   255.40uV
    V(X_U1.X_U12.N11943)      =    35.56mV  \   255.40uV
    V(X_U1.X_U12.X_U2.OUT2)   =    35.74mV  \   255.40uV
    V(X_U1.X_U5.SHUTDOWN_OUT) =    7.147mV  \    51.08uV
    V(X_U1.X_U7.N784807)      =    7.112mV  \    51.08uV
    V(X_U1.X_U7.N784683)      =    35.74mV  \    1.825uV
    V(X_U1.X_U7.X_U15.OUT2)   =    7.147mV  \    51.08uV
    V(X_U1.X_U7.POR)          =    7.112mV  \    51.08uV
    V(X_U1.X_U7.X_U16.OUT2)   =    7.147mV  \    51.08uV
    V(X_U1.X_U7.X_U13.OUT1)   =    35.74mV  \    1.825uV

  These supply currents failed to converge:

    I(X_U2.EB1)               =    4.843mA  \    8.022nA
    I(X_U2.EB2)               =    4.843mA  \    8.028nA
    I(X_U1.X_U3.EOUT)         =  -177.77uA  \  -153.24fA
    I(X_U1.X_U4.e.T_T1.eA1)   =    5.647uA  \   260.92pA
    I(X_U1.X_U4.e.T_T1.eB1)   =   -5.647uA  \         0A
    I(X_U1.X_U4.E_E1)         =   -5.647uA  \  -260.92pA
    I(X_U1.X_U12.X_U3.EOUT)   =  -176.51uA  \   -14.29pA
    I(X_U1.X_U12.X_U2.EOUT)   =  -176.51uA  \   -15.32pA
    I(X_U1.X_U5.X_U4.EOUT)    =   -35.48uA  \   -2.859pA
    I(X_U1.X_U7.X_U15.EOUT)   =   -35.30uA  \   -2.859pA
    I(X_U1.X_U7.X_U16.EOUT)   =   -35.30uA  \   -2.859pA
    I(X_U1.X_U6.X_U1.EVSS_NEW) =    2.677nA  \   -2.533nA
    I(X_Q2.L1)                =   -5.398nA  \   -42.87pA
    I(X_Q2.L2)                =   611.90nA  \   920.08pA
    I(X_Q2.L3)                =  -606.50nA  \  -877.21pA
    I(X_D1.L2)                =  -433.79nA  \   -4.482pA
    I(X_D1.L3)                =   433.79nA  \    4.482pA
    I(X_Q3.L2)                =    4.394nA  \   910.48pA
    I(X_Q3.L3)                =   -4.399nA  \  -914.82pA
    I(X_B1.Lgx)               =  -947.53nA  \   324.42pA
    I(X_B1.Ldx)               =   -2.806uA  \   514.44pA
    I(X_B1.Lsx)               =    1.859uA  \  -190.02pA
    I(X_Q4.L1)                =   -6.523nA  \   679.86pA
    I(X_Q4.L2)                =    1.229uA  \  -125.58pA
    I(X_Q4.L3)                =   -1.223uA  \  -554.28pA
    IA(X_U1.X_U4.T_T1)        =    5.647uA  \   260.92pA
    IB(X_U1.X_U4.T_T1)        =   -5.647uA  \         0A
    I(V_V1)                   =   -1.012mA  \   -1.002mA
    I(V_V3)                   =   610.90nA  \    1.792nA
    I(X_U1.X_U5.V_V17)        =    4.156nA  \   -1.055nA
    I(X_U1.X_U5.V_V18)        =    4.156nA  \   -1.055nA

  These devices failed to converge:
    X_B1.B1   X_U1.X_U3.EOUT X_U1.X_U12.X_U3.EOUT X_U1.X_U12.X_U2.EOUT 
    X_U1.X_U5.X_U10.E1 X_U1.X_U7.X_U17.E1 X_U1.X_U7.X_U15.EOUT 
    X_U1.X_U7.X_U16.EOUT 

**** Interrupt ****
