
**** 03/01/25 22:11:30 **** PSpice 22.1.0 (15 January 2024) *** ID# 0 ********

 ** Profile: "SCHEMATIC1-sim_test"  [ C:\Users\15062\Desktop\design\test-pspicefiles\schematic1\sim_test.sim ] 


 ****     CIRCUIT DESCRIPTION


******************************************************************************




** Creating circuit file "sim_test.cir" 
** WARNING: THIS AUTOMATICALLY GENERATED FILE MAY BE OVERWRITTEN BY SUBSEQUENT SIMULATIONS

*Libraries: 
* Profile Libraries :
* Local Libraries :
* From [PSPICE NETLIST] section of D:\Cadence\Spb_data\cdssetup\OrCAD_PSpice\22.1.0\PSpice.ini file:
.lib "C:\Users\15062\Desktop\design\model\OPA656\OPA656.LIB" 
.lib "C:\Users\15062\Desktop\design\model\OPA333\OPAx333.LIB" 
.lib "C:\Users\15062\Desktop\design\model\OPA2735\OPAx735.LIB" 
.lib "C:\Users\15062\Desktop\design\model\OPAx180\OPAx180.LIB" 
.lib "D:\Cadence\SPB_22.1\tools\capture\library\pspice\CSD18532Q5\CSD18532Q5B.lib" 
.lib "C:\Users\15062\Desktop\design\model\CSD18540Q5B\CSD18540Q5B.lib" 
.lib "C:\Users\15062\Desktop\design\model\LM358-TI\lmx58_lm2904.lib" 
.lib "C:\Users\15062\Desktop\design\model\UCC27323\UCC3895_PSPICE_TRANS\ucc3895.lib" 
.lib "C:\Users\15062\Desktop\design\model\TLV3605\tlv3605.lib" 
.lib "D:\Cadence\SPB_22.1\tools\capture\library\pspice\design_hold_circuit\OPA388\OPAx388.LIB" 
.lib "D:\Cadence\SPB_22.1\tools\capture\library\pspice\design_hold_circuit\LMP7721\LMP7721.LIB" 
.lib "D:\Cadence\SPB_22.1\tools\capture\library\pspice\design_hold_circuit\REF5045\REF5045.LIB" 
.lib "D:\Cadence\SPB_22.1\tools\capture\library\pspice\design_hold_circuit\ADG1236\adg1236.lib" 
.lib "D:\Cadence\SPB_22.1\tools\capture\library\pspice\design_hold_circuit\THS3491\ths3491.lib" 
.lib "D:\Cadence\SPB_22.1\tools\capture\library\pspice\design_hold_circuit\CSD25404Q3\CSD25404Q3.lib" 
.lib "D:\Cadence\SPB_22.1\tools\capture\library\pspice\design_hold_circuit\CSD17573Q5B\CSD17573Q5B.lib" 
.lib "D:\Cadence\SPB_22.1\tools\capture\library\pspice\design_hold_circuit\TLV3603\tlv3603.lib" 
.lib "D:\Cadence\SPB_22.1\tools\capture\library\pspice\design_hold_circuit\REF5050\REF5050.LIB" 
.lib "D:\Cadence\SPB_22.1\tools\capture\library\pspice\REF5010_PSPICE_AIO\REF5010.LIB" 
.lib "D:\Cadence\SPB_22.1\tools\capture\library\pspice\sbomao2c\OPAx188.LIB" 
.lib "D:\Cadence\SPB_22.1\tools\capture\library\pspice\slpm140b\CSD17577Q5A.lib" 
.lib "D:\Cadence\SPB_22.1\tools\capture\library\pspice\REF5025_PSPICE_AIO\REF5025.LIB" 
.lib "nom.lib" 

*Analysis directives: 
.TRAN  0 4u 0 
.OPTIONS ADVCONV
.OPTIONS ITL1= 1000
.OPTIONS ITL2= 200
.PROBE V(alias(*)) I(alias(*)) W(alias(*)) D(alias(*)) NOISE(alias(*)) 
.INC "..\SCHEMATIC1.net" 



**** INCLUDING SCHEMATIC1.net ****
* source TEST
V_V1         VCC 0 5Vdc
V_V2         VSS 0 -5Vdc
V_V3         N54074 0 0.4Vdc
V_V4         N28616 0 4.5Vdc
C_C1         0 N28732  2n  TC=0,0 
R_R2         N32314 N29345  300 TC=0,0 
X_U1         N28732 N28616 N30371 VCC VCC VCC 0 N30724 N69582 TLV3605
X_Q2         N32846 N30724 N54074 BFG425W/PLP
R_R4         N32846 VCC  1k TC=0,0 
X_D1         N32314 N28732 BAT14-03w/INF
X_Q3         N29345 N30724 N54074 BFG425W/PLP
X_B1         N69343 N32846 N69686 NE325S01/CEL
V_V10         N40704 0  
+PULSE 0 3.3 50n 1n 1n 1.5u 2u
X_U2         N40704 0 N40798 N40802 VDD N69343 UCCX7324
C_C2         0 VDD  100n  TC=0,0 
C_C3         0 VDD  1u  TC=0,0 
I_I3         VCC N28732 DC 1uAdc  
X_U3         VCC N64950 0 N65048 N65052 REF5045
C_C4         0 N65048  1u  TC=0,0 
V_V12         VDD 0 12Vdc
V_V13         VEE 0 -12Vdc
C_C5         0 VCC  1u  TC=0,0 
C_C6         0 N65052  22u  TC=0,0 
R_R5         N29345 N69686  20 TC=0,0 
X_U4         N54074 N72183 VCC VSS N72183 OPA656

**** RESUMING sim_test.cir ****
.END

**** 03/01/25 22:11:30 **** PSpice 22.1.0 (15 January 2024) *** ID# 0 ********

 ** Profile: "SCHEMATIC1-sim_test"  [ C:\Users\15062\Desktop\design\test-pspicefiles\schematic1\sim_test.sim ] 


 ****     Diode MODEL PARAMETERS


******************************************************************************




               X_D1.D1         X_U3.DVN        X_U3.DIN        X_U3.DD         
          IS   45.266500E-12  100.000000E-18   10.000000E-15   10.000000E-15 
           N    1.082                                                        
          BV    7.2                                                          
         IBV    1.000000E-06                                                 
          RS    4.9                                                          
          TT    3.000000E-12                                                 
         CJO  161.710000E-15                                                 
          VJ     .224                                                        
           M     .1397                                                       
          EG     .73                                                         
         XTI    2.5                                                          
          KF                  105.000000E-18                                 


               X_U3.DL         X_U4.XI0.XI18.X1.DVNF 
          IS    9.500000E-12  100.000000E-18 
           N    1.55                         
         XTI    1.5                          
          KF                   10.000000E-15 


               X_U4.XI0.XI63.X1.DVNF 
          IS  100.000000E-18 
          KF   10.000000E-15 


               X_U4.XI0.XI17.X1.DVN 
          IS  100.000000E-18 
          KF   31.622780E-12 


**** 03/01/25 22:11:30 **** PSpice 22.1.0 (15 January 2024) *** ID# 0 ********

 ** Profile: "SCHEMATIC1-sim_test"  [ C:\Users\15062\Desktop\design\test-pspicefiles\schematic1\sim_test.sim ] 


 ****     BJT MODEL PARAMETERS


******************************************************************************




               X_Q2.NPN        X_Q3.NPN        X_U3.Q          X_U3.QA         
               NPN             NPN             NPN             NPN             
       LEVEL    1               1               1               1            
          IS   47.170000E-18   47.170000E-18  100.000000E-18   14.500000E-18 
          BF  145             145             100             100            
          NF     .9934           .9934          1               1            
         VAF   31.12           31.12                                         
         IKF     .304            .304                                        
         ISE  300.200000E-15  300.200000E-15                                 
          NE    3               3                                            
          BR   11.37           11.37            1               1            
          NR     .985            .985           1               1            
         VAR    1.874           1.874                                        
         IKR     .121            .121                                        
         ISC  484.800000E-18  484.800000E-18                                 
          NC    1.546           1.546                                        
         ISS    0               0               0               0            
          RB   14.41           14.41                                         
         RBM    6.175           6.175                                        
          RE     .1779           .1779          0               0            
          RC    1.78            1.78            0               0            
         CJE  310.900000E-15  310.900000E-15    0               0            
         VJE     .9              .9              .75             .75         
         MJE     .3456           .3456                                       
         CJC  137.700000E-15  137.700000E-15    0               0            
         VJC     .5569           .5569           .75             .75         
         MJC     .2079           .2079           .33             .33         
        XCJC     .5              .5             1               1            
         CJS  667.500000E-15  667.500000E-15    0               0            
         VJS     .4183           .4183           .75             .75         
         MJS     .2391           .2391                                       
          FC     .5501           .5501                                       
          TF    4.122000E-12    4.122000E-12                                 
         XTF   68.2            68.2                                          
         VTF    2.004           2.004                                        
         ITF    1.525           1.525                                        
         XTB    1.5             1.5                                          
          KF    0               0               0               0            
          AF    1               1               1               1            
          CN    2.42            2.42            2.42            2.42         
           D     .87             .87             .87             .87         


               X_U3.QP         
               PNP             
       LEVEL    1            
          IS  100.000000E-18 
          BF  100            
          NF    1            
          BR    1            
          NR    1            
         ISS    0            
          RE    0            
          RC    0            
         CJE    0            
         VJE     .75         
         CJC    0            
         VJC     .75         
         MJC     .33         
        XCJC    1            
         CJS    0            
         VJS     .75         
          KF    0            
          AF    1            
          CN    2.2          
           D     .52         


**** 03/01/25 22:11:30 **** PSpice 22.1.0 (15 January 2024) *** ID# 0 ********

 ** Profile: "SCHEMATIC1-sim_test"  [ C:\Users\15062\Desktop\design\test-pspicefiles\schematic1\sim_test.sim ] 


 ****     Junction FET MODEL PARAMETERS


******************************************************************************




               X_U3.JC         
               NJF             
         VTO   -2            
        BETA  100.000000E-06 
          IS    1.000000E-18 


**** 03/01/25 22:11:30 **** PSpice 22.1.0 (15 January 2024) *** ID# 0 ********

 ** Profile: "SCHEMATIC1-sim_test"  [ C:\Users\15062\Desktop\design\test-pspicefiles\schematic1\sim_test.sim ] 


 ****     MOSFET MODEL PARAMETERS


******************************************************************************




               X_U3.POUT       X_U3.NOUT       X_U3.PIN        X_U3.NIN        
               PMOS            NMOS            PMOS            NMOS            
       LEVEL    1               1               1               1            
           L  100.000000E-06  100.000000E-06  100.000000E-06  100.000000E-06 
           W  100.000000E-06  100.000000E-06  100.000000E-06  100.000000E-06 
         VTO    -.7              .7             -.7              .7          
          KP   60.000000E-06   60.000000E-06  200.000000E-06  200.000000E-06 
       GAMMA    0               0               0               0            
         PHI     .6              .6              .6              .6          
      LAMBDA    0               0               0               0            
          IS   10.000000E-15   10.000000E-15   10.000000E-15   10.000000E-15 
          JS    0               0               0               0            
          PB     .8              .8              .8              .8          
        PBSW     .8              .8              .8              .8          
          CJ    0               0               0               0            
        CJSW    0               0               0               0            
        CGSO    0               0               0               0            
        CGDO    0               0               0               0            
        CGBO    0               0               0               0            
         TOX    0               0               0               0            
          XJ    0               0               0               0            
       UCRIT   10.000000E+03   10.000000E+03   10.000000E+03   10.000000E+03 
      DIOMOD    1               1               1               1            
         VFB    0               0               0               0            
        LETA    0               0               0               0            
        WETA    0               0               0               0            
          U0    0               0               0               0            
        TEMP    0               0               0               0            
         VDD    5               5               5               5            
       XPART    0               0               0               0            


               X_U3.NSW        X_U3.HVP        X_U3.HVN        
               NMOS            PMOS            NMOS            
       LEVEL    1               1               1            
           L  100.000000E-06  100.000000E-06  100.000000E-06 
           W  100.000000E-06  100.000000E-06  100.000000E-06 
         VTO     .7             -.7              .7          
          KP  200.000000E-06    2.000000E-06    2.000000E-06 
       GAMMA    0               0               0            
         PHI     .6              .6              .6          
      LAMBDA    0               0               0            
          IS    1.000000E-18   10.000000E-15   10.000000E-15 
          JS    0               0               0            
          PB     .8              .8              .8          
        PBSW     .8              .8              .8          
          CJ    0               0               0            
        CJSW    0               0               0            
        CGSO    0               0               0            
        CGDO    0               0               0            
        CGBO    0               0               0            
         TOX    0               0               0            
          XJ    0               0               0            
       UCRIT   10.000000E+03   10.000000E+03   10.000000E+03 
      DIOMOD    1               1               1            
         VFB    0               0               0            
        LETA    0               0               0            
        WETA    0               0               0            
          U0    0               0               0            
        TEMP    0               0               0            
         VDD    5               5               5            
       XPART    0               0               0            


**** 03/01/25 22:11:30 **** PSpice 22.1.0 (15 January 2024) *** ID# 0 ********

 ** Profile: "SCHEMATIC1-sim_test"  [ C:\Users\15062\Desktop\design\test-pspicefiles\schematic1\sim_test.sim ] 


 ****     GaAs MESFET MODEL PARAMETERS


******************************************************************************




               X_B1.NE32500    
       LEVEL    1            
         VTO    -.8          
         VBI     .715        
       ALPHA    8            
        BETA     .103        
          RG    3            
         CGD   20.000000E-15 
         CGS  300.000000E-15 
         CDS  130.000000E-15 
          IS  300.000000E-15 
         TAU    4.000000E-12 
           N    1.22         
       DELTA    1            
       GAMMA     .08         
      VDELTA     .1          
          EG    1.43         
         XTI    3            


**** 03/01/25 22:11:30 **** PSpice 22.1.0 (15 January 2024) *** ID# 0 ********

 ** Profile: "SCHEMATIC1-sim_test"  [ C:\Users\15062\Desktop\design\test-pspicefiles\schematic1\sim_test.sim ] 


 ****     Voltage Controlled Switch MODEL PARAMETERS


******************************************************************************




               X_U1.X_U5.X_S16._S16 
         RON    1            
        ROFF    1.000000E+12 
         VON    0            
        VOFF    1            


               X_U1.X_U5.X_S6._S6 
         RON    1            
        ROFF    1.000000E+12 
         VON    2.5          
        VOFF    1.25         


               X_U1.X_U5.X_S3._S3 
         RON    1            
        ROFF    1.000000E+12 
         VON    2.5          
        VOFF    1.25         


               X_U1.X_U5.X_S17._S17 
         RON    1            
        ROFF    1.000000E+12 
         VON    0            
        VOFF    1            


               X_U1.X_U5.X_S4._S4 
         RON    1            
        ROFF    1.000000E+12 
         VON   -1.25         
        VOFF   -2.5          


               X_U1.X_U5.X_S5._S5 
         RON    1            
        ROFF    1.000000E+12 
         VON   -1.25         
        VOFF   -2.5          


Starting pseudo-transient algorithm.

INFO(ORPSIM-16594): To improve Pseudotransient Convergence and Performance, set following options to relax stabilization criteria for capacitor currents and inductor voltages: PTRANABSTOL=1e-5, PTRANVNTOL=1e-4

ERROR -- Convergence problem in transient bias point calculation


  Last node voltages tried were:

 NODE   VOLTAGE     NODE   VOLTAGE     NODE   VOLTAGE     NODE   VOLTAGE


(  VCC)     .0628  (  VDD)     .1507  (  VEE)    -.1507  (  VSS)    -.0628      

(N28616)     .0565 (N28732) 106.5E-06 (N29345)     .0017 (N30371)     .0157     

(N30724)     .0129 (N32314)     .0017 (N32846)     .0628 (N40704)    0.0000     

(N40798)    0.0000 (N40802)     .0014 (N54074)     .0050 (N64950)    -.0098     

(N65048) 37.65E-15 (N65052) 2.720E-12 (N69343)     .0017 (N69582)     .0173     

(N69686)     .0017 (N72183) 145.6E-09 (X_B1.4)     .0628 (X_B1.5)     .0017     

(X_B1.6)     .0017 (X_B1.7)     .0628 (X_B1.8)     .0017 (X_B1.9)     .0017     

(X_D1.1)     .0017 (X_D1.2) 106.5E-06 (X_Q2.4)     .0628 (X_Q2.5)     .0129     

(X_Q2.6)     .0050 (X_Q2.7)     .0050 (X_Q2.8)     .0050 (X_Q3.4)     .0017     

(X_Q3.5)     .0129 (X_Q3.6)     .0050 (X_Q3.7)     .0050 (X_Q3.8)     .0050     

(X_U2.2)     .1507 (X_U2.3)    -.0611 (X_U2.4)-486.8E-12 (X_U2.7)    -.0611     

(X_U2.8)     .1256 (X_U2.9)     .1507 (X_U3.7) 826.4E-09 (X_U3.8) 829.6E-18     

(X_U3.9)    0.0000 (X_B1.10)     .0017                   (X_B1.11)     .0017    

(X_B1.12)     .0017                   (X_D1.10)     .0017                       

(X_U1.EN)    0.0000                   (X_U2.10)    -.0614                       

(X_U2.11)-489.1E-12                   (X_U2.12)    -.0614                       

(X_U2.15) 12.56E-09                   (X_U2.17)     .1256                       

(X_U2.18) 12.56E-09                   (X_U2.19)    0.0000                       

(X_U2.21)    0.0000                   (X_U2.VA)    0.0000                       

(X_U2.VB)    0.0000                   (X_U3.10) 788.5E-06                       

(X_U3.11) 788.5E-06                   (X_U3.12) 788.5E-06                       

(X_U3.13)-358.1E-24                   (X_U3.14) 788.5E-06                       

(X_U3.15) 788.5E-06                   (X_U3.16)     .0628                       

(X_U3.17)-4.387E-21                   (X_U3.18) 530.2E-09                       

(X_U3.19) 469.3E-09                   (X_U3.20) 788.5E-06                       

(X_U3.21) 788.5E-06                   (X_U3.22) 100.4E-15                       

(X_U3.23) 2.803E-12                   (X_U3.24)     .4823                       

(X_U3.25)     .4823                   (X_U3.26)     .3701                       

(X_U3.27)     .3701                   (X_U3.28)-109.1E-12                       

(X_U3.29)-109.1E-12                   (X_U3.30) 6.715E-09                       

(X_U3.31) 28.08E-12                   (X_U3.32) 316.3E-12                       

(X_U3.33) 9.902E-06                   (X_U3.34)    0.0000                       

(X_U3.35) 520.9E-15                   (X_U3.36) 41.48E-12                       

(X_U3.37) 1.037E-09                   (X_U3.38)    0.0000                       

(X_U3.39) 54.63E-18                   (X_U3.40) 28.08E-12                       

(X_U3.41)-1.370E-12                   (X_U3.42) 84.33E-12                       

(X_U3.43) 28.08E-12                   (X_U3.44) 28.09E-12                       

(X_U3.45) 4.951E-06                   (X_U3.46) 530.2E-09                       

(X_U3.47) 530.2E-09                   (X_U3.48)-527.3E-12                       

(X_U3.49) 2.023E-06                   (X_U3.50) 591.5E-12                       

(X_U3.51) 786.5E-06                   (X_U3.52)    -.0120                       

(X_U3.53) 2.232E-12                   (X_U3.54) 6.715E-09                       

(X_U3.55) 2.232E-12                   (X_U3.56)-109.1E-12                       

(X_U3.57)     .0128                   (X_U3.58) 786.5E-06                       

(X_U3.59) 2.023E-06                   (X_U3.60) 4.951E-06                       

(X_U3.61) 35.20E-15                   (X_U3.62) 787.7E-06                       

(X_U3.63) 788.5E-06                   (X_U3.64) 6.715E-09                       

(X_U3.65) 525.9E-06                   (X_U3.66) 525.9E-06                       

(X_U3.67) 788.5E-06                   (X_U3.68) 525.9E-06                       

(X_U3.69) 394.3E-06                   (X_U3.70)    -.0118                       

(X_U3.71) 788.5E-06                   (X_U3.72) 788.5E-06                       

(X_U3.73)    -.7237                   (X_U3.74) 4.951E-06                       

(X_U3.75) 533.4E-12                   (X_U3.76)-527.8E-12                       

(X_U3.77) 4.951E-06                   (X_U3.78) 4.951E-06                       

(X_U3.79)    -.0075                   (X_U3.80)    -.0075                       

(X_U3.81) 161.1E-06                   (X_U3.82) 627.4E-06                       

(X_U3.83)     .5408                   (X_U3.84)     .5325                       

(X_U3.85)     .5281                   (X_U3.86) 25.18E-09                       

(X_U3.87) 27.82E-09                   (X_U3.88)     .0276                       

(X_U3.89)     .0224                   (X_U3.90) 408.6E-06                       

(X_U3.91)     .0124                   (X_U3.92)     .0278                       

(X_U3.93)     .0224                   (X_U3.94) 215.9E-06                       

(X_U3.95)     .0126                   (X_U3.96)     .0126                       

(X_U3.97)    0.0000                   (X_U3.98) 2.791E-12                       

(X_U3.99)     .6392                   (X_U4.PD)     .0628                       

(X_U3.100)     .6400                  (X_U3.101)     .6654                      

(X_U3.102)     .0064                  (X_U3.103)     .6082                      

(X_U3.104)     .6078                  (X_U3.105)     .6400                      

(X_U3.106)     .0471                  (X_U3.107)     .6625                      

(X_U3.108)     .0067                  (X_U3.109)     .6622                      

(X_U3.110)     .0208                  (X_U3.111)     .6654                      

(X_U3.112)     .0027                  (X_U3.113)     .0209                      

(X_U3.114)     .0084                  (X_U3.115)     .0857                      

(X_U3.116) 176.4E-06                  (X_U3.117)     .0022                      

(X_U3.118)   15.0560                  (X_U3.119)     .0022                      

(X_U3.120)     .0022                  (X_U3.121)   15.0630                      

(X_U3.122)     .5419                  (X_U3.123)     .5337                      

(X_U3.124)     .5396                  (X_U3.125)     .5314                      

(X_U3.126)     .5265                  (X_U3.127)    -.0098                      

(X_U1.LATCH)    0.0000                (X_U1.VHYST)    0.0000                    

(X_U1.VLOGIC)     .0126               (X_U1.IN+BUFF) 1.338E-06                  

(X_U1.IN-BUFF) 709.7E-06              (X_U1.N891263)    0.0000                  

(X_U1.N891299)    0.0000              (X_U1.N892466) 7.617E-06                  

(X_U1.N892600)    0.0000              (X_U1.N893364)    0.0000                  

(X_U1.N893591) 788.5E-06              (X_U1.X_U3.VH)    0.0000                  

(X_U1.X_U5.1V)     .0126              (X_U1.X_U7.1V)     .0126                  

(X_U1.N8917111) 12.96E-09             (X_U1.X_U3.OUT)    0.0000                 

(X_U1.X_U7.POR) 157.7E-06             (X_U1.X_U9.VLE) 197.1E-06                 

(X_U4.XI0.NET1)     .0050             (X_U4.XI0.NET2) 145.6E-09                 

(X_U1.X_U3.VMID) 4.951E-06            (X_U4.XI0.HIGHZ)-78.05E-12                

(X_U4.XI0.NET11)     .0050            (X_U4.XI0.NET12) 145.6E-09                

(X_U4.XI0.NET21)     .0050            (X_U4.XI0.NET22) 145.6E-09                

(X_U4.XI0.NET31)-78.05E-12            (X_U4.XI0.NET32) 374.9E-15                

(X_U4.XI0.NET41)-78.05E-12            (X_U4.XI0.NET51)-78.05E-12                

(X_U4.XI0.NET56)    -.0198            (X_U4.XI0.NET61)-980.1E-15                

(X_U4.XI0.NET71)-12.31E-15            (X_U4.XI0.PDINV)-9.902E-06                

(X_U4.XI0.POWER) 9.902E-06            (X_U1.VEE_BUFFER)    0.0000               

(X_U1.X_U11.OUT2)    0.0000           (X_U1.VCCI_BUFFER) 788.5E-06              

(X_U1.X_U3.INNNEW) 8.912E-06          (X_U1.X_U4.N06672)    0.0000              

(X_U1.X_U5.X_U2.4)    0.0000          (X_U1.X_U9.N00729)     .0157              

(X_U4.XI0.VCC_INT) 788.5E-06          (X_U4.XI0.VEE_INT)-788.5E-06              

(X_U4.XI0.XI60.Ib) 25.12E-15          (X_U4.XI0.XI60.Io) 12.56E-15              

(X_U1.X_U12.N11903) 788.5E-06         (X_U1.X_U12.N11909)    0.0000             

(X_U1.X_U12.N11937)    0.0000         (X_U1.X_U12.N11943) 788.5E-06             

(X_U1.X_U12.N12017)     .0628         (X_U1.X_U12.N12181)    0.0000             

(X_U1.X_U12.N12289)    0.0000         (X_U1.X_U12.VLOGIC)     .0628             

(X_U1.X_U12.X_U4.4)    0.0000         (X_U1.X_U12.X_U5.4)    0.0000             

(X_U1.X_U12.X_U6.3)    0.0000         (X_U1.X_U19.N20155)     .0046             

(X_U1.X_U19.N20415)    -.0038         (X_U1.X_U19.N20531)    0.0000             

(X_U1.X_U19.N20539)    -.0038         (X_U1.X_U19.N20826)    0.0000             

(X_U1.X_U19.N20833)    0.0000         (X_U1.X_U19.N20840)    0.0000             

(X_U1.X_U4.N065860)    0.0000         (X_U1.X_U5.N903216)     .0173             

(X_U1.X_U5.N903460)     .0173         (X_U1.X_U5.N903474)     .0129             

(X_U1.X_U5.N903506)     .0129         (X_U1.X_U5.N903742)     .0173             

(X_U1.X_U5.N903930)     .0129         (X_U1.X_U5.X_U10.4)    0.0000             

(X_U1.X_U7.N784593)     .0698         (X_U1.X_U7.N784683) 9.902E-06             

(X_U1.X_U7.N784697)    0.0000         (X_U1.X_U7.N784807) 157.7E-06             

(X_U1.X_U7.N784909)     .0300         (X_U1.X_U7.N785081)     .0300             

(X_U1.X_U7.X_U17.4)    0.0000         (X_U4.XI0.VINM_INT) 145.6E-09             

(X_U4.XI0.VINP_INT)     .0050         (X_U4.XI0.XI30.VOH) 615.0E-06             

(X_U4.XI0.XI30.VOL)-615.0E-06         (X_U4.XI0.XI40.ION) 2.208E-06             

(X_U1.X_U19.N202710)     .0046        (X_U1.X_U19.X_U24.6)    0.0000            

(X_U1.X_U5.N9032561)     .0151        (X_U1.X_U5.N9040901)     .0151            

(X_U4.XI0.XI17.X1.3)    0.0000        (X_U4.XI0.XI17.X1.4)    0.0000            

(X_U4.XI0.XI17.X1.5)    0.0000        (X_U4.XI0.XI17.X1.6)    0.0000            

(X_U4.XI0.XI17.X1.7)     .7205        (X_U4.XI0.XI17.X1.8)     .7205            

(X_U4.XI0.XI18.X1.3)    0.0000        (X_U4.XI0.XI18.X1.4)    0.0000            

(X_U4.XI0.XI18.X1.5)    0.0000        (X_U4.XI0.XI18.X1.6)    0.0000            

(X_U4.XI0.XI18.X1.7)     .7205        (X_U4.XI0.XI18.X1.8)     .7205            

(X_U4.XI0.XI19.X1.1) 1.599E-09        (X_U4.XI0.XI19.X1.2) 29.83E-12            

(X_U4.XI0.XI19.X1.3)-8.463E-09        (X_U4.XI0.XI19.X1.4)-598.1E-12            

(X_U4.XI0.XI21.X1.1) 76.84E-15        (X_U4.XI0.XI21.X1.2) 373.2E-18            

(X_U4.XI0.XI26.NET4)-980.1E-15        (X_U4.XI0.XI28.NET8)    -.0055            

(X_U4.XI0.XI28.NET9)     .0055        (X_U4.XI0.XI40.X1.3)    0.0000            

(X_U4.XI0.XI52.X1.3)    0.0000        (X_U4.XI0.XI58.NET7)-78.05E-12            

(X_U4.XI0.XI63.X1.3)    0.0000        (X_U4.XI0.XI63.X1.4)    0.0000            

(X_U4.XI0.XI63.X1.5)    0.0000        (X_U4.XI0.XI63.X1.6)    0.0000            

(X_U4.XI0.XI63.X1.7)     .7205        (X_U4.XI0.XI63.X1.8)     .7205            

(X_U4.XI0.XI66.NET6) 63.12E-06        (X_U4.XI0.XI66.NET8) 1.828E-09            

(X_U1.X_U7.X_U5.OUT2)    0.0000       (X_U4.XI0.XI19.X1.1a) 1.599E-09           

(X_U4.XI0.XI19.X1.3a)-8.463E-09       (X_U4.XI0.XI21.X1.1a) 76.84E-15           

(X_U4.XI0.XI30.NET15) 145.6E-09       (X_U4.XI0.XI30.NET17) 145.5E-09           

(X_U4.XI0.XI30.NET22)-154.6E-18       (X_U4.XI0.XI30.NET34) 145.6E-09           

(X_U4.XI0.XI30.NET53) 145.5E-09       (X_U4.XI0.XI30.NET75) 11.04E-06           

(X_U4.XI0.XI30.NET76) 1.829E-09       (X_U4.XI0.XI30.NET79) 11.18E-06           

(X_U4.XI0.XI30.VIMON)-1.103E-12       (X_U4.XI0.XI40.PDINV)    0.0000           

(X_U4.XI0.XI52.PDINV)    0.0000       (X_U4.XI0.XI66.NET13)    -.0078           

(X_U4.XI0.XI67.NET12)     .0096       (X_U4.XI0.XI67.NET16)     .0050           

(X_U4.XI0.XI67.NET20)    -.0096       (X_U4.XI0.XI68.NET12)     .0096           

(X_U4.XI0.XI68.NET16) 145.6E-09       (X_U4.XI0.XI68.NET20)    -.0096           

(X_U4.XI0.XI85.NET15)-12.31E-15       (X_U4.XI0.XI85.NET27)-12.31E-15           

(X_U1.X_U12.X_U2.OUT2) 788.5E-06      (X_U1.X_U12.X_U3.OUT2) 788.5E-06          

(X_U1.X_U19.X_U1.OUT2)    0.0000      (X_U1.X_U5.OUTOFRANGE)    0.0000          

(X_U1.X_U7.X_U13.OUT1) 9.902E-06      (X_U1.X_U7.X_U15.OUT2) 157.7E-06          

(X_U1.X_U7.X_U16.OUT2) 157.7E-06      (X_U4.XI0.XI19.X1.101) 20.08E-12          

(X_U4.XI0.XI19.X1.102)    0.0000      (X_U4.XI0.XI19.X1.301)-106.3E-12          

(X_U4.XI0.XI19.X1.302)    0.0000      (X_U4.XI0.XI21.X1.101) 964.9E-18          

(X_U4.XI0.XI21.X1.102)    0.0000      (X_U4.XI0.XI26.NET019)-980.1E-15          

(X_U4.XI0.XI26.NET020)-980.1E-15      (X_U4.XI0.XI28.NET014)-78.05E-12          

(X_U4.XI0.XI30.NET043) 146.3E-09      (X_U4.XI0.XI30.NET047) 11.18E-06          

(X_U4.XI0.XI30.NET054)-9.902E-06      (X_U4.XI0.XI30.NET055)-9.902E-06          

(X_U4.XI0.XI30.NET059)-489.5E-06      (X_U4.XI0.XI30.NET064) 11.04E-06          

(X_U4.XI0.XI30.NET067) 489.5E-06      (X_U4.XI0.XI30.NET068) 145.6E-09          

(X_U4.XI0.XI30.NET070) 615.0E-06      (X_U4.XI0.XI30.NET092) 145.5E-09          

(X_U4.XI0.XI30.XI6.RS)    0.0000      (X_U4.XI0.XI40.LOGIC1)     .0126          

(X_U4.XI0.XI52.LOGIC1)     .0126      (X_U4.XI0.XI66.NET074)     .0055          

(X_U4.XI0.XI66.NET076)    -.0212      (X_U4.XI0.XI85.NET024)-12.31E-15          

(X_U4.XI0.XI85.NET026)-12.31E-15      (X_U1.X_U19.X_U21.OUT2)    0.0000         

(X_U1.X_U19.X_U22.OUT2)    0.0000     (X_U1.X_U19.X_U23.OUT2)    0.0000         

(X_U4.XI0.XI30.NET0100) 146.3E-09     (X_U4.XI0.XI30.NET0146) 145.5E-09         

(X_U4.XI0.XI30.NET0147) 145.5E-09     (X_U4.XI0.XI30.NET0151) 145.5E-09         

(X_U1.X_U5.SHUTDOWN_OUT) 157.7E-06    (X_U4.XI0.XI30.VIMONINV) 1.103E-12        

(X_U4.XI0.XI30.XI0.X1.3)    0.0000    (X_U4.XI0.XI30.XI6.X1.3)    0.0000        

(X_U4.XI0.XI40.ION_SEG1)     .0126    (X_U4.XI0.XI40.ION_SEG2)    0.0000        

(X_U4.XI0.XI40.ION_SEG3)    0.0000    (X_U4.XI0.XI52.ITAILMAX) 13.81E-06        

(X_U4.XI0.XI52.ITAILMIN) 13.81E-06    (X_U4.XI0.XI30.XI0.PDINV)    0.0000       

(X_U1.SHUTDOWN_IQ_CONTROL)    0.0000  (X_U4.XI0.XI30.XAHDLI43.4)-9.902E-06      

(X_U4.XI0.XI30.XI0.LOGIC1)     .0126  (X_U4.XI0.XI30.XI6.LOGIC1)     .0126      

(X_U1.X_LATCH_DEALY.N06081)    0.0000 (X_U1.X_U5.OUTPUT_SHUTDOWN)    0.0000     

(X_U1.X_LATCH_DEALY.N059950)    0.0000                                          

(X_U4.XI0.XI30.XI23.NEG_INT)-491.1E-06                                          

(X_U4.XI0.XI30.XI25.NEG_INT)-491.3E-06                                          

(X_U4.XI0.XI30.RECOVERYSIGNAL)-9.902E-06                                        

(X_U1.X_Supply_Currents.N833564) 65.30E-06                                      

(X_U1.X_Supply_Currents.N833572) 94.18E-06                                      

(X_U1.X_Supply_Currents.N833584) 1.256E-06                                      

(X_U1.X_Supply_Currents.N833598) 18.84E-06                                      

(X_U4.XI0.XI30.XIVOH.VDROPvsIOUT)     .0138                                     

(X_U4.XI0.XI30.XIVOL.VDROPvsIOUT)     .0138                                     

(X_U1.X_Supply_Currents.X_U1.VCC1)     .0628                                    

(X_U1.X_Supply_Currents.X_U2.VCC1)     .0628                                    

(X_U4.XI0.XI30.XISINKVLIMIT.IscVsVsupply) 879.1E-06                             

(X_U4.XI0.XI30.XISOURCEVLIMIT.IscVsVsupply) 879.1E-06    


  These voltages failed to converge:

    V(N32314)                 =    2.962mV  \    1.650mV
    V(N29345)                 =    3.124mV  \    1.650mV
    V(N32846)                 =    62.98mV  \    62.79mV
    V(N69686)                 =    3.160mV  \    1.650mV
    V(X_U1.N892466)           =   112.89uV  \    7.617uV
    V(X_U1.IN+BUFF)           =   106.61uV  \    1.338uV
    V(X_Q2.4)                 =    62.98mV  \    62.79mV
    V(X_D1.1)                 =    2.962mV  \    1.650mV
    V(X_D1.10)                =    2.962mV  \    1.650mV
    V(X_Q3.4)                 =    3.124mV  \    1.650mV
    V(X_Q3.8)                 =    5.038mV  \    5.023mV
    V(X_B1.10)                =    3.168mV  \    1.650mV
    V(X_B1.7)                 =    62.98mV  \    62.79mV
    V(X_B1.11)                =    3.165mV  \    1.650mV
    V(X_B1.12)                =    3.165mV  \    1.650mV
    V(X_B1.9)                 =    3.160mV  \    1.650mV
    V(X_B1.8)                 =    3.172mV  \    1.650mV
    V(X_B1.4)                 =    62.98mV  \    62.79mV
    V(X_B1.5)                 =    3.172mV  \    1.650mV
    V(X_B1.6)                 =    3.160mV  \    1.650mV
    V(N69343)                 =    3.185mV  \    1.650mV
    V(X_U2.4)                 =  -296.53uV  \  -486.82pV
    V(X_U2.2)                 =   142.26mV  \   150.69mV
    V(X_U2.3)                 =  -219.58mV  \   -61.13mV
    V(X_U2.9)                 =   142.26mV  \   150.69mV
    V(X_U2.7)                 =    -4.997V  \   -61.14mV
    V(X_U2.10)                =  -219.86mV  \   -61.41mV
    V(N40802)                 =    2.908mV  \    1.368mV
    V(X_U2.11)                =  -296.52uV  \  -489.11pV
    V(X_U2.12)                =    -4.997V  \   -61.42mV
    V(X_U1.X_U3.VMID)         =    31.40mV  \    4.951uV
    V(X_U1.VCCI_BUFFER)       =    62.79mV  \   788.50uV
    V(X_U1.X_U3.INNNEW)       =    56.51mV  \    8.912uV
    V(X_U1.IN-BUFF)           =    56.51mV  \   709.65uV
    V(X_U1.X_U19.N202710)     =    66.56mV  \    4.556mV
    V(X_U1.X_U19.N20155)      =    66.56mV  \    4.556mV
    V(X_U1.X_U12.N11903)      =    62.79mV  \   788.50uV
    V(X_U1.X_U12.X_U3.OUT2)   =    62.79mV  \   788.50uV
    V(X_U1.N893591)           =    62.56mV  \   788.50uV
    V(X_U1.X_U12.N11943)      =    62.56mV  \   788.50uV
    V(X_U1.X_U12.X_U2.OUT2)   =    62.79mV  \   788.50uV
    V(X_U1.X_U5.SHUTDOWN_OUT) =    12.56mV  \   157.70uV
    V(X_U1.X_U7.N784807)      =    12.51mV  \   157.70uV
    V(X_U1.X_U7.N784683)      =    62.79mV  \     9.90uV
    V(X_U1.X_U7.X_U15.OUT2)   =    12.56mV  \   157.70uV
    V(X_U1.X_U7.POR)          =    12.51mV  \   157.70uV
    V(X_U1.X_U7.X_U16.OUT2)   =    12.56mV  \   157.70uV
    V(X_U1.X_U7.X_U13.OUT1)   =    62.79mV  \     9.90uV
    V(X_U4.XI0.XI66.NET6)     =    66.27uV  \    63.12uV
    V(X_U4.XI0.NET21)         =    5.277mV  \    5.026mV
    V(X_U4.XI0.XI30.NET070)   =    -1.099V  \   615.03uV
    V(X_U4.XI0.XI30.VOH)      =    -1.099V  \   615.03uV
    V(X_U4.XI0.XI30.NET059)   =     1.099V  \  -489.45uV
    V(X_U4.XI0.XI30.VOL)      =     1.099V  \  -615.03uV
    V(X_U4.XI0.XI30.NET067)   =    -1.099V  \   489.45uV
    V(X_U4.XI0.XI30.NET79)    =    70.00mV  \    11.19uV
    V(X_U4.XI0.XI30.NET047)   =    70.00mV  \    11.19uV
    V(X_U4.XI0.XI30.NET75)    =    70.00mV  \    11.04uV
    V(X_U4.XI0.XI30.NET064)   =    70.00mV  \    11.04uV
    V(X_U4.XI0.XI67.NET16)    =    5.277mV  \    5.026mV
    V(X_U4.XI0.VINP_INT)      =    5.277mV  \    5.026mV
    V(X_U4.XI0.XI52.ITAILMAX) =    1.100mV  \    13.81uV
    V(X_U4.XI0.XI52.ITAILMIN) =    1.100mV  \    13.81uV
    V(X_U4.XI0.XI40.ION_SEG1) =     1.000V  \    12.56mV
    V(X_U4.XI0.XI40.ION)      =    14.00mV  \    2.208uV
    V(X_U4.XI0.PDINV)         =  -788.51uV  \    -9.90uV
    V(X_U4.XI0.POWER)         =   788.51uV  \     9.90uV
    V(X_U4.XI0.XI30.XI25.NEG_INT) =    69.50mV  \  -491.27uV
    V(X_U4.XI0.XI30.XI23.NEG_INT) =    69.50mV  \  -491.13uV
    V(X_U4.XI0.XI30.XIVOL.VDROPvsIOUT) =     1.100V  \    13.81mV
    V(X_U4.XI0.XI30.XIVOH.VDROPvsIOUT) =     1.100V  \    13.81mV
    V(X_U4.XI0.XI30.XISOURCEVLIMIT.IscVsVsupply) =    70.00mV  \   879.05uV
    V(X_U4.XI0.XI30.XISINKVLIMIT.IscVsVsupply) =    70.00mV  \   879.05uV
    V(X_U4.XI0.XI30.XAHDLI43.4) =  -788.51uV  \    -9.90uV
    V(X_U4.XI0.XI30.NET055)   =  -788.51uV  \    -9.90uV
    V(X_U4.XI0.XI30.NET054)   =  -788.51uV  \    -9.90uV
    V(X_U4.XI0.XI30.RECOVERYSIGNAL) =  -785.60uV  \    -9.90uV

  These supply currents failed to converge:

    I(X_U2.EB1)               =    4.777mA  \    9.174nA
    I(X_U2.EB2)               =    4.777mA  \    9.178nA
    I(X_U1.X_U12.X_U3.EOUT)   =  -231.63uA  \   -25.12pA
    I(X_U1.X_U12.X_U2.EOUT)   =  -231.63uA  \   -28.27pA
    I(X_U1.X_U5.X_U4.EOUT)    =   -46.50uA  \   -5.023pA
    I(X_U1.X_U7.X_U15.EOUT)   =   -46.33uA  \   -5.023pA
    I(X_U1.X_U7.X_U16.EOUT)   =   -46.33uA  \   -5.023pA
    I(X_U1.X_U6.X_U1.EVSS_NEW) =    9.438nA  \   -2.752nA
    I(X_U4.XI0.XI66.E0)       =   -7.915mA  \   -7.906mA
    I(X_U4.XI0.XI26.E0)       =   -1.141pA  \ 18.47e-18A
    I(X_U4.XI0.XI59.E1)       =   -2.528pA  \   -95.63pA
    I(X_U4.XI0.XI13.E0)       =   -56.24KA  \   -706.27A
    I(X_U4.XI0.XI12.E0)       =    56.24KA  \    706.28A
    I(X_U4.XI0.XI30.XIVOL.E1) =   -2.198pA  \    3.902pA
    I(X_U4.XI0.XI30.XIVOH.E1) =   -2.198pA  \    3.900pA
    I(X_U4.XI0.XI30.XISOURCEVLIMIT.E1) =  -884.59fA  \    3.116pA
    I(X_U4.XI0.XI30.XISINKVLIMIT.E1) =  -884.40fA  \    3.115pA
    I(X_U4.XI0.XI30.XAHDLI43.E1) =    2.909uA  \   473.10fA
    I(X_U4.XI0.XI30.XI2.E0)   =   949.37pA  \    87.85pA
    I(X_U4.XI0.XI21.X1.E1)    =    1.500pA  \    3.006fA
    I(X_U4.XI0.XI19.X1.E1)    =   -1.500pA  \   -3.006fA
    I(X_U4.XI0.XI17.X1.E3)    =    34.62pA  \   127.72pA
    I(X_Q2.L1)                =   -1.384nA  \   -41.99pA
    I(X_Q2.L2)                =   161.66nA  \   911.55pA
    I(X_Q2.L3)                =  -160.28nA  \  -869.56pA
    I(X_D1.L1)                =   -4.955pA  \   -6.316pA
    I(X_D1.L2)                =  -541.20nA  \   -9.400pA
    I(X_D1.L3)                =   541.20nA  \    9.400pA
    I(X_Q3.L1)                =   -11.01nA  \    92.17pA
    I(X_Q3.L2)                =    1.247uA  \   -72.83pA
    I(X_Q3.L3)                =   -1.236uA  \   -19.35pA
    I(X_B1.Lgx)               =    3.510pA  \   329.52pA
    I(X_B1.Ldx)               =   -2.130uA  \   461.08pA
    I(X_B1.Lsx)               =    2.130uA  \  -131.57pA
    I(X_U4.XI0.XI30.LOUT1)    =  -949.36pA  \   -87.85pA
    I(X_U4.XI0.XI30.LOUT2)    =  -949.37pA  \   -87.85pA
    I(X_U4.XI0.XI26.L0)       =    1.141pA  \ -18.47e-18A
    I(V_V1)                   =   -15.02mA  \   -1.003mA
    I(V_V2)                   =    14.00mA  \    28.98nA
    I(V_V3)                   =    1.396uA  \   417.40pA
    I(V_V12)                  =   -3.203mA  \   -2.640mA
    I(X_U1.X_U5.V_V17)        =    10.99nA  \   -1.204nA
    I(X_U1.X_U5.V_V18)        =    10.99nA  \   -1.204nA
    I(X_U4.XI0.VPROBE2)       =    1.080mA  \   -19.60uA
    I(X_U4.XI0.VDOMPOLEBIAS)  =   -1.100mA  \  -173.47nA
    I(X_U4.XI0.VPROBE1)       =    1.100mA  \   173.47nA
    I(X_U4.XI0.XI66.VIL)      =   -1.334KA  \    -16.74A
    I(X_U4.XI0.XI66.VIH)      =   -1.334KA  \    -16.76A
    I(X_U4.XI0.XI30.VPROBE3)  =    2.198pA  \   -3.900pA
    I(X_U4.XI0.XI30.V3)       =  -884.40fA  \    3.115pA
    I(X_U4.XI0.XI30.V4)       =  -884.59fA  \    3.116pA
    I(X_U4.XI0.XI30.VPROBE4)  =    2.198pA  \   -3.902pA
    I(X_U4.XI0.XI30.VCURSOURCEDETECT) =  -949.12pA  \   -87.85pA
    I(X_U4.XI0.XI30.VCURSINKDETECT) =   949.12pA  \    87.85pA
    I(X_U4.XI0.XI30.VPROBE1)  =   -6.686nA  \  -154.90pA
    I(X_U4.XI0.XI67.V0)       =    2.505pA  \    31.87pA
    I(X_U4.XI0.XI67.VESDL)    =    29.71fA  \    92.63pA
    I(X_U4.XI0.XI67.VESDH)    =    8.604fA  \    28.87pA
    I(X_U4.XI0.XI68.V0)       =    1.500pA  \    1.160fA
    I(X_U4.XI0.XI68.VESDL)    =    19.16fA  \    60.75pA
    I(X_U4.XI0.XI68.VESDH)    =    19.16fA  \    60.75pA
    I(X_U4.XI0.XI28.VBRIDGE)  =   -1.080mA  \    19.60uA
    I(X_U4.XI0.XI28.VRECL)    =   -54.91KA  \   -689.48A
    I(X_U4.XI0.XI28.VRECH)    =   -54.91KA  \   -689.48A
    I(X_U4.XI0.XI30.XI25.V1)  =  -884.59fA  \    3.116pA
    I(X_U4.XI0.XI30.XI23.V1)  =  -884.40fA  \    3.115pA

  These devices failed to converge:
    X_B1.B1   X_U1.X_U12.X_U3.EOUT X_U1.X_U12.X_U2.EOUT X_U1.X_U5.X_U10.E1 
    X_U1.X_U7.X_U17.E1 X_U1.X_U7.X_U15.EOUT X_U1.X_U7.X_U16.EOUT 
    X_U4.XI0.XI30.XAHDLI41.E1 X_U4.XI0.XI30.XAHDLI42.E1 X_U4.XI0.XI52.G1 
    X_U4.XI0.XI30.XI14.G1 X_U4.XI0.XI30.XI15.G1 

**** Interrupt ****
