
**** 03/03/25 18:28:17 **** PSpice 22.1.0 (15 January 2024) *** ID# 0 ********

 ** Profile: "SCHEMATIC1-sim_test"  [ C:\Users\15062\Desktop\design\test-pspicefiles\schematic1\sim_test.sim ] 


 ****     CIRCUIT DESCRIPTION


******************************************************************************




** Creating circuit file "sim_test.cir" 
** WARNING: THIS AUTOMATICALLY GENERATED FILE MAY BE OVERWRITTEN BY SUBSEQUENT SIMULATIONS

*Libraries: 
* Profile Libraries :
* Local Libraries :
* From [PSPICE NETLIST] section of D:\Cadence\Spb_data\cdssetup\OrCAD_PSpice\22.1.0\PSpice.ini file:
.lib "C:\Users\15062\Desktop\design\model\OPA656\OPA656.LIB" 
.lib "C:\Users\15062\Desktop\design\model\OPA333\OPAx333.LIB" 
.lib "C:\Users\15062\Desktop\design\model\OPA2735\OPAx735.LIB" 
.lib "C:\Users\15062\Desktop\design\model\OPAx180\OPAx180.LIB" 
.lib "D:\Cadence\SPB_22.1\tools\capture\library\pspice\CSD18532Q5\CSD18532Q5B.lib" 
.lib "C:\Users\15062\Desktop\design\model\CSD18540Q5B\CSD18540Q5B.lib" 
.lib "C:\Users\15062\Desktop\design\model\LM358-TI\lmx58_lm2904.lib" 
.lib "C:\Users\15062\Desktop\design\model\UCC27323\UCC3895_PSPICE_TRANS\ucc3895.lib" 
.lib "C:\Users\15062\Desktop\design\model\TLV3605\tlv3605.lib" 
.lib "D:\Cadence\SPB_22.1\tools\capture\library\pspice\design_hold_circuit\OPA388\OPAx388.LIB" 
.lib "D:\Cadence\SPB_22.1\tools\capture\library\pspice\design_hold_circuit\LMP7721\LMP7721.LIB" 
.lib "D:\Cadence\SPB_22.1\tools\capture\library\pspice\design_hold_circuit\REF5045\REF5045.LIB" 
.lib "D:\Cadence\SPB_22.1\tools\capture\library\pspice\design_hold_circuit\ADG1236\adg1236.lib" 
.lib "D:\Cadence\SPB_22.1\tools\capture\library\pspice\design_hold_circuit\THS3491\ths3491.lib" 
.lib "D:\Cadence\SPB_22.1\tools\capture\library\pspice\design_hold_circuit\CSD25404Q3\CSD25404Q3.lib" 
.lib "D:\Cadence\SPB_22.1\tools\capture\library\pspice\design_hold_circuit\CSD17573Q5B\CSD17573Q5B.lib" 
.lib "D:\Cadence\SPB_22.1\tools\capture\library\pspice\design_hold_circuit\TLV3603\tlv3603.lib" 
.lib "D:\Cadence\SPB_22.1\tools\capture\library\pspice\design_hold_circuit\REF5050\REF5050.LIB" 
.lib "D:\Cadence\SPB_22.1\tools\capture\library\pspice\REF5010_PSPICE_AIO\REF5010.LIB" 
.lib "D:\Cadence\SPB_22.1\tools\capture\library\pspice\sbomao2c\OPAx188.LIB" 
.lib "D:\Cadence\SPB_22.1\tools\capture\library\pspice\slpm140b\CSD17577Q5A.lib" 
.lib "D:\Cadence\SPB_22.1\tools\capture\library\pspice\REF5025_PSPICE_AIO\REF5025.LIB" 
.lib "nom.lib" 

*Analysis directives: 
.TRAN  0 4u 0 
.OPTIONS ADVCONV
.OPTIONS ITL1= 1000
.OPTIONS ITL2= 200
.PROBE V(alias(*)) I(alias(*)) W(alias(*)) D(alias(*)) NOISE(alias(*)) 
.INC "..\SCHEMATIC1.net" 



**** INCLUDING SCHEMATIC1.net ****
* source TEST
V_V1         VCC 0 5Vdc
V_V2         VSS 0 -5Vdc
V_V3         N54074 0 0.4Vdc
V_V4         N28616 0 4.5Vdc
C_C1         0 N28732  1n  TC=0,0 
R_R2         N32314 N29345  700 TC=0,0 
X_U1         N28732 N28616 N30371 VCC VCC VCC 0 N30724 N69582 TLV3605
X_Q2         N32846 N30724 N54074 BFG425W/PLP
R_R4         N32846 VCC  1k TC=0,0 
X_D1         N32314 N28732 BAT14-03w/INF
X_Q3         N29345 N30724 N54074 BFG425W/PLP
V_V10         N40704 0  
+PULSE 0 3.3 50n 1n 1n 1.5u 2u
X_U2         N40704 0 N40798 N40802 N40929 N69343 UCCX7324
C_C2         0 N40929  100n  TC=0,0 
C_C3         0 N40929  1u  TC=0,0 
I_I3         VCC N28732 DC 1uAdc  
X_U3         VCC N64950 0 N65048 N65052 REF5045
C_C4         0 N65048  1u  TC=0,0 
V_V12         VDD 0 12Vdc
V_V13         VEE 0 -12Vdc
C_C5         0 VCC  1u  TC=0,0 
C_C6         0 N65052  22u  TC=0,0 
R_R5         N29345 N69343  20 TC=0,0 
R_R6         N40929 VDD  1k TC=0,0 
R_R7         0 N40929  1k TC=0,0 
V_V14         N40798 0  
+PULSE 1.023 1.375 100n 200p 200p 20n 200n

**** RESUMING sim_test.cir ****
.END

**** 03/03/25 18:28:17 **** PSpice 22.1.0 (15 January 2024) *** ID# 0 ********

 ** Profile: "SCHEMATIC1-sim_test"  [ C:\Users\15062\Desktop\design\test-pspicefiles\schematic1\sim_test.sim ] 


 ****     Diode MODEL PARAMETERS


******************************************************************************




               X_D1.D1         X_U3.DVN        X_U3.DIN        X_U3.DD         
          IS   45.266500E-12  100.000000E-18   10.000000E-15   10.000000E-15 
           N    1.082                                                        
          BV    7.2                                                          
         IBV    1.000000E-06                                                 
          RS    4.9                                                          
          TT    3.000000E-12                                                 
         CJO  161.710000E-15                                                 
          VJ     .224                                                        
           M     .1397                                                       
          EG     .73                                                         
         XTI    2.5                                                          
          KF                  105.000000E-18                                 


               X_U3.DL         
          IS    9.500000E-12 
           N    1.55         
         XTI    1.5          


**** 03/03/25 18:28:17 **** PSpice 22.1.0 (15 January 2024) *** ID# 0 ********

 ** Profile: "SCHEMATIC1-sim_test"  [ C:\Users\15062\Desktop\design\test-pspicefiles\schematic1\sim_test.sim ] 


 ****     BJT MODEL PARAMETERS


******************************************************************************




               X_Q2.NPN        X_Q3.NPN        X_U3.Q          X_U3.QA         
               NPN             NPN             NPN             NPN             
       LEVEL    1               1               1               1            
          IS   47.170000E-18   47.170000E-18  100.000000E-18   14.500000E-18 
          BF  145             145             100             100            
          NF     .9934           .9934          1               1            
         VAF   31.12           31.12                                         
         IKF     .304            .304                                        
         ISE  300.200000E-15  300.200000E-15                                 
          NE    3               3                                            
          BR   11.37           11.37            1               1            
          NR     .985            .985           1               1            
         VAR    1.874           1.874                                        
         IKR     .121            .121                                        
         ISC  484.800000E-18  484.800000E-18                                 
          NC    1.546           1.546                                        
         ISS    0               0               0               0            
          RB   14.41           14.41                                         
         RBM    6.175           6.175                                        
          RE     .1779           .1779          0               0            
          RC    1.78            1.78            0               0            
         CJE  310.900000E-15  310.900000E-15    0               0            
         VJE     .9              .9              .75             .75         
         MJE     .3456           .3456                                       
         CJC  137.700000E-15  137.700000E-15    0               0            
         VJC     .5569           .5569           .75             .75         
         MJC     .2079           .2079           .33             .33         
        XCJC     .5              .5             1               1            
         CJS  667.500000E-15  667.500000E-15    0               0            
         VJS     .4183           .4183           .75             .75         
         MJS     .2391           .2391                                       
          FC     .5501           .5501                                       
          TF    4.122000E-12    4.122000E-12                                 
         XTF   68.2            68.2                                          
         VTF    2.004           2.004                                        
         ITF    1.525           1.525                                        
         XTB    1.5             1.5                                          
          KF    0               0               0               0            
          AF    1               1               1               1            
          CN    2.42            2.42            2.42            2.42         
           D     .87             .87             .87             .87         


               X_U3.QP         
               PNP             
       LEVEL    1            
          IS  100.000000E-18 
          BF  100            
          NF    1            
          BR    1            
          NR    1            
         ISS    0            
          RE    0            
          RC    0            
         CJE    0            
         VJE     .75         
         CJC    0            
         VJC     .75         
         MJC     .33         
        XCJC    1            
         CJS    0            
         VJS     .75         
          KF    0            
          AF    1            
          CN    2.2          
           D     .52         


**** 03/03/25 18:28:17 **** PSpice 22.1.0 (15 January 2024) *** ID# 0 ********

 ** Profile: "SCHEMATIC1-sim_test"  [ C:\Users\15062\Desktop\design\test-pspicefiles\schematic1\sim_test.sim ] 


 ****     Junction FET MODEL PARAMETERS


******************************************************************************




               X_U3.JC         
               NJF             
         VTO   -2            
        BETA  100.000000E-06 
          IS    1.000000E-18 


**** 03/03/25 18:28:17 **** PSpice 22.1.0 (15 January 2024) *** ID# 0 ********

 ** Profile: "SCHEMATIC1-sim_test"  [ C:\Users\15062\Desktop\design\test-pspicefiles\schematic1\sim_test.sim ] 


 ****     MOSFET MODEL PARAMETERS


******************************************************************************




               X_U3.POUT       X_U3.NOUT       X_U3.PIN        X_U3.NIN        
               PMOS            NMOS            PMOS            NMOS            
       LEVEL    1               1               1               1            
           L  100.000000E-06  100.000000E-06  100.000000E-06  100.000000E-06 
           W  100.000000E-06  100.000000E-06  100.000000E-06  100.000000E-06 
         VTO    -.7              .7             -.7              .7          
          KP   60.000000E-06   60.000000E-06  200.000000E-06  200.000000E-06 
       GAMMA    0               0               0               0            
         PHI     .6              .6              .6              .6          
      LAMBDA    0               0               0               0            
          IS   10.000000E-15   10.000000E-15   10.000000E-15   10.000000E-15 
          JS    0               0               0               0            
          PB     .8              .8              .8              .8          
        PBSW     .8              .8              .8              .8          
          CJ    0               0               0               0            
        CJSW    0               0               0               0            
        CGSO    0               0               0               0            
        CGDO    0               0               0               0            
        CGBO    0               0               0               0            
         TOX    0               0               0               0            
          XJ    0               0               0               0            
       UCRIT   10.000000E+03   10.000000E+03   10.000000E+03   10.000000E+03 
      DIOMOD    1               1               1               1            
         VFB    0               0               0               0            
        LETA    0               0               0               0            
        WETA    0               0               0               0            
          U0    0               0               0               0            
        TEMP    0               0               0               0            
         VDD    5               5               5               5            
       XPART    0               0               0               0            


               X_U3.NSW        X_U3.HVP        X_U3.HVN        
               NMOS            PMOS            NMOS            
       LEVEL    1               1               1            
           L  100.000000E-06  100.000000E-06  100.000000E-06 
           W  100.000000E-06  100.000000E-06  100.000000E-06 
         VTO     .7             -.7              .7          
          KP  200.000000E-06    2.000000E-06    2.000000E-06 
       GAMMA    0               0               0            
         PHI     .6              .6              .6          
      LAMBDA    0               0               0            
          IS    1.000000E-18   10.000000E-15   10.000000E-15 
          JS    0               0               0            
          PB     .8              .8              .8          
        PBSW     .8              .8              .8          
          CJ    0               0               0            
        CJSW    0               0               0            
        CGSO    0               0               0            
        CGDO    0               0               0            
        CGBO    0               0               0            
         TOX    0               0               0            
          XJ    0               0               0            
       UCRIT   10.000000E+03   10.000000E+03   10.000000E+03 
      DIOMOD    1               1               1            
         VFB    0               0               0            
        LETA    0               0               0            
        WETA    0               0               0            
          U0    0               0               0            
        TEMP    0               0               0            
         VDD    5               5               5            
       XPART    0               0               0            


**** 03/03/25 18:28:17 **** PSpice 22.1.0 (15 January 2024) *** ID# 0 ********

 ** Profile: "SCHEMATIC1-sim_test"  [ C:\Users\15062\Desktop\design\test-pspicefiles\schematic1\sim_test.sim ] 


 ****     Voltage Controlled Switch MODEL PARAMETERS


******************************************************************************




               X_U1.X_U5.X_S16._S16 
         RON    1            
        ROFF    1.000000E+12 
         VON    0            
        VOFF    1            


               X_U1.X_U5.X_S6._S6 
         RON    1            
        ROFF    1.000000E+12 
         VON    2.5          
        VOFF    1.25         


               X_U1.X_U5.X_S3._S3 
         RON    1            
        ROFF    1.000000E+12 
         VON    2.5          
        VOFF    1.25         


               X_U1.X_U5.X_S17._S17 
         RON    1            
        ROFF    1.000000E+12 
         VON    0            
        VOFF    1            


               X_U1.X_U5.X_S4._S4 
         RON    1            
        ROFF    1.000000E+12 
         VON   -1.25         
        VOFF   -2.5          


               X_U1.X_U5.X_S5._S5 
         RON    1            
        ROFF    1.000000E+12 
         VON   -1.25         
        VOFF   -2.5          


**** 03/03/25 18:28:17 **** PSpice 22.1.0 (15 January 2024) *** ID# 0 ********

 ** Profile: "SCHEMATIC1-sim_test"  [ C:\Users\15062\Desktop\design\test-pspicefiles\schematic1\sim_test.sim ] 


 ****     INITIAL TRANSIENT SOLUTION       TEMPERATURE =   27.000 DEG C


******************************************************************************



 NODE   VOLTAGE     NODE   VOLTAGE     NODE   VOLTAGE     NODE   VOLTAGE


(  VCC)    5.0000  (  VDD)   12.0000  (  VEE)  -12.0000  (  VSS)   -5.0000      

(N28616)    4.5000 (N28732)     .1597 (N29345)     .1567 (N30371)    1.2500     

(N30724)    1.0230 (N32314)     .1567 (N32846)    4.9987 (N40704)    0.0000     

(N40798)    1.0230 (N40802) 7.710E-12 (N40929)    6.0000 (N54074)     .4000     

(N64950)     .5750 (N65048)    1.2000 (N65052)    4.5023 (N69343)     .0082     

(N69582)    1.3750 (X_D1.1)     .1567 (X_D1.2)     .1597 (X_Q2.4)    4.9987     

(X_Q2.5)    1.0230 (X_Q2.6)     .4000 (X_Q2.7)     .4000 (X_Q2.8)     .4000     

(X_Q3.4)     .1567 (X_Q3.5)    1.0230 (X_Q3.6)     .4000 (X_Q3.7)     .4000     

(X_Q3.8)     .4000 (X_U2.2)    6.0000 (X_U2.3)   -4.9918 (X_U2.4)     .0074     

(X_U2.7)   -4.9918 (X_U2.8)   10.0000 (X_U2.9)    6.0000 (X_U3.7)     .5840     

(X_U3.8) 32.17E-06 (X_U3.9)    0.0000 (X_D1.10)     .1567                       

(X_U1.EN)    0.0000                   (X_U2.10)   -5.0000                       

(X_U2.11) 6.939E-12                   (X_U2.12)   -5.0000                       

(X_U2.15) 1.026E-06                   (X_U2.17)   10.0000                       

(X_U2.18) 1.000E-06                   (X_U2.19)    0.0000                       

(X_U2.21)    0.0000                   (X_U2.VA)    0.0000                       

(X_U2.VB)    0.0000                   (X_U3.10)    2.7661                       

(X_U3.11)    2.7665                   (X_U3.12)    2.7661                       

(X_U3.13) 32.17E-06                   (X_U3.14)    4.9966                       

(X_U3.15)    4.9966                   (X_U3.16)    4.9995                       

(X_U3.17) 4.949E-06                   (X_U3.18)    2.4252                       

(X_U3.19)    2.4252                   (X_U3.20)    5.0000                       

(X_U3.21)    5.0000                   (X_U3.22) 6.000E-06                       

(X_U3.23)    4.5023                   (X_U3.24)     .5955                       

(X_U3.25)     .5955                   (X_U3.26)     .5539                       

(X_U3.27)     .5539                   (X_U3.28)    1.2000                       

(X_U3.29)    1.2000                   (X_U3.30)    1.2000                       

(X_U3.31)    1.2000                   (X_U3.32)    1.2000                       

(X_U3.33)    5.0000                   (X_U3.34)    0.0000                       

(X_U3.35)    1.2000                   (X_U3.36)    1.2000                       

(X_U3.37) 500.0E-06                   (X_U3.38)    0.0000                       

(X_U3.39) 120.0E-06                   (X_U3.40)    1.2000                       

(X_U3.41)    1.2000                   (X_U3.42)    1.2000                       

(X_U3.43)    1.2000                   (X_U3.44)    1.2000                       

(X_U3.45)    2.5000                   (X_U3.46)    2.4252                       

(X_U3.47)    2.4252                   (X_U3.48)    4.5023                       

(X_U3.49)     .7081                   (X_U3.50)    4.5051                       

(X_U3.51)    4.2163                   (X_U3.52)    4.2911                       

(X_U3.53)     .4100                   (X_U3.54)    1.2000                       

(X_U3.55)     .4100                   (X_U3.56)    1.2000                       

(X_U3.57)     .7090                   (X_U3.58)    4.2163                       

(X_U3.59)     .7081                   (X_U3.60)    2.5000                       

(X_U3.61)    4.5023                   (X_U3.62)    4.3436                       

(X_U3.63)    5.0000                   (X_U3.64)    1.2000                       

(X_U3.65)    2.8809                   (X_U3.66)    2.8809                       

(X_U3.67)    5.0000                   (X_U3.68)    2.8809                       

(X_U3.69)     .7000                   (X_U3.70)    4.0000                       

(X_U3.71)    2.7665                   (X_U3.72)    2.7665                       

(X_U3.73)    4.0809                   (X_U3.74)    2.5000                       

(X_U3.75)    4.5023                   (X_U3.76)    4.5023                       

(X_U3.77)    2.5000                   (X_U3.78)    2.5000                       

(X_U3.79)    3.6282                   (X_U3.80)-73.87E+03                       

(X_U3.81)     .7081                   (X_U3.82)    4.2163                       

(X_U3.83)     .6551                   (X_U3.84) 99.40E-06                       

(X_U3.85)    -.3499                   (X_U3.86)    1.2000                       

(X_U3.87)    1.2000                   (X_U3.88) -322.0000                       

(X_U3.89)    1.7800                   (X_U3.90)    5.0000                       

(X_U3.91)    1.0000                   (X_U3.92) -322.0000                       

(X_U3.93)    1.7800                   (X_U3.94)    5.0000                       

(X_U3.95)    1.0000                   (X_U3.96)    1.0000                       

(X_U3.97)    0.0000                   (X_U3.98)    4.5023                       

(X_U3.99)     .7411                   (X_U3.100)     .7540                      

(X_U3.101)    1.1624                  (X_U3.102)     .0534                      

(X_U3.103)     .6826                  (X_U3.104)     .4567                      

(X_U3.105)     .7541                  (X_U3.106)     .4373                      

(X_U3.107)    1.1194                  (X_U3.108)     .0585                      

(X_U3.109)    1.1194                  (X_U3.110)     .7680                      

(X_U3.111)    1.1540                  (X_U3.112)     .0481                      

(X_U3.113)     .7680                  (X_U3.114)    1.1624                      

(X_U3.115)    7.3175                  (X_U3.116)    1.2001                      

(X_U3.117) 1200.0000                  (X_U3.118) 1199.5000                      

(X_U3.119) 1200.1000                  (X_U3.120) 1200.0000                      

(X_U3.121) 1199.5000                  (X_U3.122)     .6551                      

(X_U3.123)     .0051                  (X_U3.124)     .6551                      

(X_U3.125) 99.41E-06                  (X_U3.126)    -.3870                      

(X_U3.127)     .5750                  (X_U1.LATCH)    5.0000                    

(X_U1.VHYST)    0.0000                (X_U1.VLOGIC)    1.0000                   

(X_U1.IN+BUFF)     .1597              (X_U1.IN-BUFF)    4.5000                  

(X_U1.N891263)    0.0000              (X_U1.N891299)    0.0000                  

(X_U1.N892466)     .1602              (X_U1.N892600)    0.0000                  

(X_U1.N893364)    5.0000              (X_U1.N893591)    0.0000                  

(X_U1.X_U3.VH)    0.0000              (X_U1.X_U5.1V)    1.0000                  

(X_U1.X_U7.1V)    1.0000              (X_U1.N8917111) 1.000E-06                 

(X_U1.X_U3.OUT)    0.0000             (X_U1.X_U7.POR)    0.0000                 

(X_U1.X_U9.VLE)    1.2500             (X_U1.X_U3.VMID)    2.5000                

(X_U1.VEE_BUFFER)    0.0000           (X_U1.X_U11.OUT2)    1.0000               

(X_U1.VCCI_BUFFER)    5.0000          (X_U1.X_U3.INNNEW)    4.5000              

(X_U1.X_U4.N06672)    0.0000          (X_U1.X_U5.X_U2.4)    0.0000              

(X_U1.X_U9.N00729)    1.2500          (X_U1.X_U12.N11903)    5.0000             

(X_U1.X_U12.N11909)    5.0000         (X_U1.X_U12.N11937)    5.0000             

(X_U1.X_U12.N11943)    5.0000         (X_U1.X_U12.N12017)    5.0000             

(X_U1.X_U12.N12181)    0.0000         (X_U1.X_U12.N12289)    0.0000             

(X_U1.X_U12.VLOGIC)    5.0000         (X_U1.X_U12.X_U4.4)    5.0000             

(X_U1.X_U12.X_U5.4)    0.0000         (X_U1.X_U12.X_U6.3)    5.0000             

(X_U1.X_U19.N20155)    5.3000         (X_U1.X_U19.N20415)    -.3000             

(X_U1.X_U19.N20531)    0.0000         (X_U1.X_U19.N20539)    -.3000             

(X_U1.X_U19.N20826)    0.0000         (X_U1.X_U19.N20833)    0.0000             

(X_U1.X_U19.N20840)    0.0000         (X_U1.X_U4.N065860)    0.0000             

(X_U1.X_U5.N903216)    1.3750         (X_U1.X_U5.N903460)    1.3750             

(X_U1.X_U5.N903474)    1.0240         (X_U1.X_U5.N903506)    1.0240             

(X_U1.X_U5.N903742)    1.3750         (X_U1.X_U5.N903930)    1.0250             

(X_U1.X_U5.X_U10.4)    0.0000         (X_U1.X_U7.N784593)    5.5600             

(X_U1.X_U7.N784683)    5.0000         (X_U1.X_U7.N784697)    0.0000             

(X_U1.X_U7.N784807)    0.0000         (X_U1.X_U7.N784909)    2.3900             

(X_U1.X_U7.N785081)    2.3900         (X_U1.X_U7.X_U17.4)    0.0000             

(X_U1.X_U19.N202710)    5.3000        (X_U1.X_U19.X_U24.6)    0.0000            

(X_U1.X_U5.N9032561)    1.2000        (X_U1.X_U5.N9040901)    1.2000            

(X_U1.X_U7.X_U5.OUT2)    0.0000       (X_U1.X_U12.X_U2.OUT2)    0.0000          

(X_U1.X_U12.X_U3.OUT2)    5.0000      (X_U1.X_U19.X_U1.OUT2)    0.0000          

(X_U1.X_U5.OUTOFRANGE)    0.0000      (X_U1.X_U7.X_U13.OUT1)    5.0000          

(X_U1.X_U7.X_U15.OUT2)    0.0000      (X_U1.X_U7.X_U16.OUT2)    0.0000          

(X_U1.X_U19.X_U21.OUT2)    0.0000     (X_U1.X_U19.X_U22.OUT2)    0.0000         

(X_U1.X_U19.X_U23.OUT2)    0.0000     (X_U1.X_U5.SHUTDOWN_OUT)    0.0000        

(X_U1.SHUTDOWN_IQ_CONTROL)    1.0000  (X_U1.X_LATCH_DEALY.N06081)   10.0000     

(X_U1.X_U5.OUTPUT_SHUTDOWN)    0.0000 (X_U1.X_LATCH_DEALY.N059950)    5.0000    

(X_U1.X_Supply_Currents.N833564)     .0052                                      

(X_U1.X_Supply_Currents.N833572)     .0075                                      

(X_U1.X_Supply_Currents.N833584) 100.0E-06                                      

(X_U1.X_Supply_Currents.N833598)     .0015                                      

(X_U1.X_Supply_Currents.X_U1.VCC1)    4.9948                                    

(X_U1.X_Supply_Currents.X_U2.VCC1)    4.9925             




    VOLTAGE SOURCE CURRENTS
    NAME         CURRENT

    V_V1        -1.350E-02
    V_V2         0.000E+00
    V_V3        -6.467E-03
    V_V4        -1.000E-06
    V_V10        0.000E+00
    V_V12       -6.000E-03
    V_V13        0.000E+00
    V_V14       -1.023E-08
    X_U1.V_V8    0.000E+00
    X_U1.V_VOS   0.000E+00
    X_U2.V7     -1.000E-06
    X_U2.V5     -1.026E-06
    X_U3.V152    4.561E-05
    X_U3.V154    1.200E-09
    X_U3.V20     0.000E+00
    X_U3.V21     0.000E+00
    X_U3.V22     0.000E+00
    X_U3.V23     4.000E-04
    X_U3.V26    -2.505E-10
    X_U3.V27    -3.499E-10
    X_U3.V28    -1.780E-09
    X_U3.V30    -1.780E-09
    X_U3.V31    -2.310E-12
    X_U3.V149    2.983E-12
    X_U3.V150    2.811E-12
    X_U3.V151   -7.318E-09
    X_U3.V153    5.100E-11
    X_U3.V155   -5.752E-10
    X_U3.V156   -7.740E-10
    X_U1.X_Supply_Currents.V_V2   0.000E+00
    X_U1.X_Supply_Currents.V_V1   0.000E+00
    X_U1.X_Supply_Currents.V_V3   0.000E+00
    X_U1.X_Supply_Currents.V_V4   0.000E+00
    X_U1.X_U12.V_V1   0.000E+00
    X_U1.X_U12.V_V8   0.000E+00
    X_U1.X_U12.V_V7   0.000E+00
    X_U1.X_U19.V_VCMNN   0.000E+00
    X_U1.X_U19.V_VCMPN   0.000E+00
    X_U1.X_U19.V_VCMNP   0.000E+00
    X_U1.X_U19.V_VCMPP   0.000E+00
    X_U1.X_U9.V_VLATCH   0.000E+00
    X_U1.X_U5.V_VLOGIC   0.000E+00
    X_U1.X_U5.V_V17  -9.551E-04
    X_U1.X_U5.V_V18  -9.551E-04
    X_U1.X_U5.V_V14  -1.375E-08
    X_U1.X_U5.V_V16  -1.375E-08
    X_U1.X_U7.V_VS_MAX_SET   0.000E+00
    X_U1.X_U7.V_VLOGIC   0.000E+00
    X_U1.X_U7.V_VS_MIN_SET1   0.000E+00
    X_U1.X_U7.V_VS_MIN_SET   0.000E+00

    TOTAL POWER DISSIPATION   8.84E-02  WATTS



          JOB CONCLUDED

**** 03/03/25 18:28:17 **** PSpice 22.1.0 (15 January 2024) *** ID# 0 ********

 ** Profile: "SCHEMATIC1-sim_test"  [ C:\Users\15062\Desktop\design\test-pspicefiles\schematic1\sim_test.sim ] 


 ****     JOB STATISTICS SUMMARY


******************************************************************************



  Total job time (using Solver 1)   =        6.13
