
**** 03/01/25 09:28:57 **** PSpice 22.1.0 (15 January 2024) *** ID# 0 ********

 ** Profile: "SCHEMATIC1-sim_test"  [ C:\Users\15062\Desktop\design\test-pspicefiles\schematic1\sim_test.sim ] 


 ****     CIRCUIT DESCRIPTION


******************************************************************************




** Creating circuit file "sim_test.cir" 
** WARNING: THIS AUTOMATICALLY GENERATED FILE MAY BE OVERWRITTEN BY SUBSEQUENT SIMULATIONS

*Libraries: 
* Profile Libraries :
* Local Libraries :
* From [PSPICE NETLIST] section of D:\Cadence\Spb_data\cdssetup\OrCAD_PSpice\22.1.0\PSpice.ini file:
.lib "C:\Users\15062\Desktop\design\model\TLV3605\tlv3605.lib" 
.lib "D:\Cadence\SPB_22.1\tools\capture\library\pspice\design_hold_circuit\OPA388\OPAx388.LIB" 
.lib "D:\Cadence\SPB_22.1\tools\capture\library\pspice\design_hold_circuit\LMP7721\LMP7721.LIB" 
.lib "D:\Cadence\SPB_22.1\tools\capture\library\pspice\design_hold_circuit\TLV3601\tlv3601.lib" 
.lib "D:\Cadence\SPB_22.1\tools\capture\library\pspice\design_hold_circuit\REF5045\REF5045.LIB" 
.lib "D:\Cadence\SPB_22.1\tools\capture\library\pspice\design_hold_circuit\ADG1236\adg1236.lib" 
.lib "D:\Cadence\SPB_22.1\tools\capture\library\pspice\design_hold_circuit\THS3491\ths3491.lib" 
.lib "D:\Cadence\SPB_22.1\tools\capture\library\pspice\design_hold_circuit\CSD25404Q3\CSD25404Q3.lib" 
.lib "D:\Cadence\SPB_22.1\tools\capture\library\pspice\design_hold_circuit\CSD17573Q5B\CSD17573Q5B.lib" 
.lib "D:\Cadence\SPB_22.1\tools\capture\library\pspice\design_hold_circuit\TLV3603\tlv3603.lib" 
.lib "D:\Cadence\SPB_22.1\tools\capture\library\pspice\design_hold_circuit\REF5050\REF5050.LIB" 
.lib "D:\Cadence\SPB_22.1\tools\capture\library\pspice\REF5010_PSPICE_AIO\REF5010.LIB" 
.lib "D:\Cadence\SPB_22.1\tools\capture\library\pspice\sbomao2c\OPAx188.LIB" 
.lib "D:\Cadence\SPB_22.1\tools\capture\library\pspice\slpm140b\CSD17577Q5A.lib" 
.lib "D:\Cadence\SPB_22.1\tools\capture\library\pspice\REF5025_PSPICE_AIO\REF5025.LIB" 
.lib "nom.lib" 

*Analysis directives: 
.TRAN  0 3u 0 
.OPTIONS ADVCONV
.OPTIONS ITL1= 1000
.OPTIONS ITL2= 200
.PROBE V(alias(*)) I(alias(*)) W(alias(*)) D(alias(*)) NOISE(alias(*)) 
.INC "..\SCHEMATIC1.net" 



**** INCLUDING SCHEMATIC1.net ****
* source TEST
V_V1         VCC 0 5Vdc
V_V2         VSS 0 -5Vdc
V_V3         N26903 0 2Vdc
V_V4         N28616 0 4.3Vdc
C_C1         0 N28732  1n  TC=0,0 
R_R2         N32314 N29345  300 TC=0,0 
X_U1         N28732 N28616 N30371 VCC VCC VCC 0 N30747 N30741 TLV3605
X_Q1         N30717 N30741 N30567 BFG425W/PLP
V_V6         N30567 0 0.38Vdc
R_R3         VCC N30717  1k TC=0,0 
V_V7         N30974 0  
+PULSE 0 5 50n 1n 1n 1u 1.5u
X_Q2         N32846 N30747 N33338 BFG425W/PLP
V_V8         N32730 0 5Vdc
R_R4         N32846 N32730  1k TC=0,0 
V_V9         N33338 0 0.38Vdc
R_R5         N29345 N33678  30 TC=0,0 
X_D1         N32314 N28732 BAT14-03w/INF
X_Q3         N29345 N30717 N26903 BFG425W/PLP
X_B1         N30974 N32846 N33678 NE325S01/CEL
I_I1         VCC N28732 DC 1uAdc  

**** RESUMING sim_test.cir ****
.END

**** 03/01/25 09:28:57 **** PSpice 22.1.0 (15 January 2024) *** ID# 0 ********

 ** Profile: "SCHEMATIC1-sim_test"  [ C:\Users\15062\Desktop\design\test-pspicefiles\schematic1\sim_test.sim ] 


 ****     Diode MODEL PARAMETERS


******************************************************************************




               X_D1.D1         
          IS   45.266500E-12 
           N    1.082        
          BV    7.2          
         IBV    1.000000E-06 
          RS    4.9          
          TT    3.000000E-12 
         CJO  161.710000E-15 
          VJ     .224        
           M     .1397       
          EG     .73         
         XTI    2.5          


**** 03/01/25 09:28:57 **** PSpice 22.1.0 (15 January 2024) *** ID# 0 ********

 ** Profile: "SCHEMATIC1-sim_test"  [ C:\Users\15062\Desktop\design\test-pspicefiles\schematic1\sim_test.sim ] 


 ****     BJT MODEL PARAMETERS


******************************************************************************




               X_Q1.NPN        X_Q2.NPN        X_Q3.NPN        
               NPN             NPN             NPN             
       LEVEL    1               1               1            
          IS   47.170000E-18   47.170000E-18   47.170000E-18 
          BF  145             145             145            
          NF     .9934           .9934           .9934       
         VAF   31.12           31.12           31.12         
         IKF     .304            .304            .304        
         ISE  300.200000E-15  300.200000E-15  300.200000E-15 
          NE    3               3               3            
          BR   11.37           11.37           11.37         
          NR     .985            .985            .985        
         VAR    1.874           1.874           1.874        
         IKR     .121            .121            .121        
         ISC  484.800000E-18  484.800000E-18  484.800000E-18 
          NC    1.546           1.546           1.546        
         ISS    0               0               0            
          RB   14.41           14.41           14.41         
         RBM    6.175           6.175           6.175        
          RE     .1779           .1779           .1779       
          RC    1.78            1.78            1.78         
         CJE  310.900000E-15  310.900000E-15  310.900000E-15 
         VJE     .9              .9              .9          
         MJE     .3456           .3456           .3456       
         CJC  137.700000E-15  137.700000E-15  137.700000E-15 
         VJC     .5569           .5569           .5569       
         MJC     .2079           .2079           .2079       
        XCJC     .5              .5              .5          
         CJS  667.500000E-15  667.500000E-15  667.500000E-15 
         VJS     .4183           .4183           .4183       
         MJS     .2391           .2391           .2391       
          FC     .5501           .5501           .5501       
          TF    4.122000E-12    4.122000E-12    4.122000E-12 
         XTF   68.2            68.2            68.2          
         VTF    2.004           2.004           2.004        
         ITF    1.525           1.525           1.525        
         XTB    1.5             1.5             1.5          
          KF    0               0               0            
          AF    1               1               1            
          CN    2.42            2.42            2.42         
           D     .87             .87             .87         


**** 03/01/25 09:28:57 **** PSpice 22.1.0 (15 January 2024) *** ID# 0 ********

 ** Profile: "SCHEMATIC1-sim_test"  [ C:\Users\15062\Desktop\design\test-pspicefiles\schematic1\sim_test.sim ] 


 ****     GaAs MESFET MODEL PARAMETERS


******************************************************************************




               X_B1.NE32500    
       LEVEL    1            
         VTO    -.8          
         VBI     .715        
       ALPHA    8            
        BETA     .103        
          RG    3            
         CGD   20.000000E-15 
         CGS  300.000000E-15 
         CDS  130.000000E-15 
          IS  300.000000E-15 
         TAU    4.000000E-12 
           N    1.22         
       DELTA    1            
       GAMMA     .08         
      VDELTA     .1          
          EG    1.43         
         XTI    3            


**** 03/01/25 09:28:57 **** PSpice 22.1.0 (15 January 2024) *** ID# 0 ********

 ** Profile: "SCHEMATIC1-sim_test"  [ C:\Users\15062\Desktop\design\test-pspicefiles\schematic1\sim_test.sim ] 


 ****     Voltage Controlled Switch MODEL PARAMETERS


******************************************************************************




               X_U1.X_U5.X_S16._S16 
         RON    1            
        ROFF    1.000000E+12 
         VON    0            
        VOFF    1            


               X_U1.X_U5.X_S6._S6 
         RON    1            
        ROFF    1.000000E+12 
         VON    2.5          
        VOFF    1.25         


               X_U1.X_U5.X_S3._S3 
         RON    1            
        ROFF    1.000000E+12 
         VON    2.5          
        VOFF    1.25         


               X_U1.X_U5.X_S17._S17 
         RON    1            
        ROFF    1.000000E+12 
         VON    0            
        VOFF    1            


               X_U1.X_U5.X_S4._S4 
         RON    1            
        ROFF    1.000000E+12 
         VON   -1.25         
        VOFF   -2.5          


               X_U1.X_U5.X_S5._S5 
         RON    1            
        ROFF    1.000000E+12 
         VON   -1.25         
        VOFF   -2.5          


Starting pseudo-transient algorithm.

INFO(ORPSIM-16594): To improve Pseudotransient Convergence and Performance, set following options to relax stabilization criteria for capacitor currents and inductor voltages: PTRANABSTOL=1e-5, PTRANVNTOL=1e-4

WARNING(ORPSIM-16534): Using high values of ITL4 for Speed Level > 0 may increase total simulation job time.

ERROR -- Convergence problem in transient bias point calculation


  Last node voltages tried were:

 NODE   VOLTAGE     NODE   VOLTAGE     NODE   VOLTAGE     NODE   VOLTAGE


(  VCC)     .0210  (  VSS)    -.0210  (N26903)     .0084 (N28616)     .0180     

(N28732) 147.1E-06 (N29345) 24.88E-09 (N30371)     .0052 (N30567)     .0016     

(N30717)     .0210 (N30741)     .0058 (N30747)     .0043 (N30974)    0.0000     

(N32314) 24.92E-09 (N32730)     .0210 (N32846)     .0210 (N33338)     .0016     

(N33678) 9.903E-09 (X_B1.4)     .0210 (X_B1.5) 5.368E-09 (X_B1.6) 9.869E-09     

(X_B1.7)     .0210 (X_B1.8) 5.367E-09 (X_B1.9) 9.869E-09 (X_D1.1) 24.92E-09     

(X_D1.2) 147.1E-06 (X_Q1.4)     .0210 (X_Q1.5)     .0058 (X_Q1.6)     .0016     

(X_Q1.7)     .0016 (X_Q1.8)     .0016 (X_Q2.4)     .0210 (X_Q2.5)     .0043     

(X_Q2.6)     .0016 (X_Q2.7)     .0016 (X_Q2.8)     .0016 (X_Q3.4) 24.88E-09     

(X_Q3.5)     .0210 (X_Q3.6)     .0084 (X_Q3.7)     .0084 (X_Q3.8)     .0084     

(X_B1.10) 7.157E-09                   (X_B1.11) 8.731E-09                       

(X_B1.12) 7.156E-09                   (X_D1.10) 24.92E-09                       

(X_U1.EN)    0.0000                   (X_U1.LATCH)    0.0000                    

(X_U1.VHYST)    0.0000                (X_U1.VLOGIC)     .0042                   

(X_U1.IN+BUFF) 616.6E-09              (X_U1.IN-BUFF) 75.55E-06                  

(X_U1.N891263)    0.0000              (X_U1.N891299)    0.0000                  

(X_U1.N892466) 2.712E-06              (X_U1.N892600) 368.3E-09                  

(X_U1.N893364)    0.0000              (X_U1.N893591) 87.85E-06                  

(X_U1.X_U3.VH)    0.0000              (X_U1.X_U5.1V)     .0042                  

(X_U1.X_U7.1V)     .0042              (X_U1.N8917111) 5.385E-09                 

(X_U1.X_U3.OUT) 368.3E-09             (X_U1.X_U7.POR) 17.57E-06                 

(X_U1.X_U9.VLE) 21.96E-06             (X_U1.X_U3.VMID) 184.1E-09                

(X_U1.VEE_BUFFER)    0.0000           (X_U1.X_U11.OUT2)    0.0000               

(X_U1.VCCI_BUFFER) 87.85E-06          (X_U1.X_U3.INNNEW) 316.7E-09              

(X_U1.X_U4.N06672) 3.087E-09          (X_U1.X_U5.X_U2.4)    0.0000              

(X_U1.X_U9.N00729)     .0052          (X_U1.X_U12.N11903) 87.85E-06             

(X_U1.X_U12.N11909)    0.0000         (X_U1.X_U12.N11937)    0.0000             

(X_U1.X_U12.N11943) 87.85E-06         (X_U1.X_U12.N12017)     .0210             

(X_U1.X_U12.N12181)    0.0000         (X_U1.X_U12.N12289)    0.0000             

(X_U1.X_U12.VLOGIC)     .0210         (X_U1.X_U12.X_U4.4)    0.0000             

(X_U1.X_U12.X_U5.4)    0.0000         (X_U1.X_U12.X_U6.3)    0.0000             

(X_U1.X_U19.N20155)     .0013         (X_U1.X_U19.N20415)    -.0013             

(X_U1.X_U19.N20531)    0.0000         (X_U1.X_U19.N20539)    -.0013             

(X_U1.X_U19.N20826)    0.0000         (X_U1.X_U19.N20833)    0.0000             

(X_U1.X_U19.N20840)    0.0000         (X_U1.X_U4.N065860) 1.544E-09             

(X_U1.X_U5.N903216)     .0058         (X_U1.X_U5.N903460)     .0058             

(X_U1.X_U5.N903474)     .0043         (X_U1.X_U5.N903506)     .0043             

(X_U1.X_U5.N903742)     .0058         (X_U1.X_U5.N903930)     .0043             

(X_U1.X_U5.X_U10.4)    0.0000         (X_U1.X_U7.N784593)     .0233             

(X_U1.X_U7.N784683) 368.3E-09         (X_U1.X_U7.N784697)    0.0000             

(X_U1.X_U7.N784807) 17.57E-06         (X_U1.X_U7.N784909)     .0100             

(X_U1.X_U7.N785081)     .0100         (X_U1.X_U7.X_U17.4)    0.0000             

(X_U1.X_U19.N202710)     .0013        (X_U1.X_U19.X_U24.6)    0.0000            

(X_U1.X_U5.N9032561)     .0050        (X_U1.X_U5.N9040901)     .0050            

(X_U1.X_U7.X_U5.OUT2)    0.0000       (X_U1.X_U12.X_U2.OUT2) 87.85E-06          

(X_U1.X_U12.X_U3.OUT2) 87.85E-06      (X_U1.X_U19.X_U1.OUT2)    0.0000          

(X_U1.X_U5.OUTOFRANGE)    0.0000      (X_U1.X_U7.X_U13.OUT1) 368.3E-09          

(X_U1.X_U7.X_U15.OUT2) 17.57E-06      (X_U1.X_U7.X_U16.OUT2) 17.57E-06          

(X_U1.X_U19.X_U21.OUT2)    0.0000     (X_U1.X_U19.X_U22.OUT2)    0.0000         

(X_U1.X_U19.X_U23.OUT2)    0.0000     (X_U1.X_U5.SHUTDOWN_OUT) 17.57E-06        

(X_U1.SHUTDOWN_IQ_CONTROL)    0.0000  (X_U1.X_LATCH_DEALY.N06081)    0.0000     

(X_U1.X_U5.OUTPUT_SHUTDOWN)    0.0000 (X_U1.X_LATCH_DEALY.N059950)    0.0000    

(X_U1.X_Supply_Currents.N833564) 21.80E-06                                      

(X_U1.X_Supply_Currents.N833572) 31.44E-06                                      

(X_U1.X_Supply_Currents.N833584) 419.2E-09                                      

(X_U1.X_Supply_Currents.N833598) 6.288E-06                                      

(X_U1.X_Supply_Currents.X_U1.VCC1)     .0210                                    

(X_U1.X_Supply_Currents.X_U2.VCC1)     .0210             


  These voltages failed to converge:

    V(X_U1.N892466)           =   149.19uV  \    2.713uV
    V(X_U1.IN+BUFF)           =   147.10uV  \   616.59nV
    V(X_U1.X_U3.VMID)         =    10.48mV  \   184.13nV
    V(X_U1.VCCI_BUFFER)       =    20.96mV  \    87.85uV
    V(X_U1.X_U3.INNNEW)       =    18.03mV  \   316.70nV
    V(X_U1.N892600)           =    20.88mV  \   368.26nV
    V(X_U1.IN-BUFF)           =    18.03mV  \    75.55uV
    V(X_U1.X_U3.OUT)          =    20.96mV  \   368.26nV
    V(X_U1.X_U4.N065860)      =    80.02uV  \    1.544nV
    V(X_U1.N891263)           =    80.02uV  \         0V
    V(X_U1.X_U4.N06672)       =   175.05uV  \    3.087nV
    V(X_U1.X_U19.N202710)     =    22.22mV  \    1.345mV
    V(X_U1.X_U19.N20155)      =    22.22mV  \    1.345mV
    V(X_U1.X_U12.N11903)      =    20.96mV  \    87.85uV
    V(X_U1.X_U12.X_U3.OUT2)   =    20.96mV  \    87.85uV
    V(X_U1.N893591)           =    20.88mV  \    87.85uV
    V(X_U1.X_U12.N11943)      =    20.88mV  \    87.85uV
    V(X_U1.X_U12.X_U2.OUT2)   =    20.96mV  \    87.85uV
    V(X_U1.X_U5.SHUTDOWN_OUT) =    4.192mV  \    17.57uV
    V(X_U1.X_U7.N784807)      =    4.176mV  \    17.57uV
    V(X_U1.X_U7.N784683)      =    20.96mV  \   368.26nV
    V(X_U1.X_U7.X_U15.OUT2)   =    4.192mV  \    17.57uV
    V(X_U1.X_U7.POR)          =    4.176mV  \    17.57uV
    V(X_U1.X_U7.X_U16.OUT2)   =    4.192mV  \    17.57uV
    V(X_U1.X_U7.X_U13.OUT1)   =    20.96mV  \   368.26nV

  These supply currents failed to converge:

    I(X_U1.X_U3.EOUT)         =   -78.30uA  \   -52.71fA
    I(X_U1.X_U4.e.T_T1.eA1)   =    1.901uA  \    30.87pA
    I(X_U1.X_U4.e.T_T1.eB1)   =   -1.901uA  \         0A
    I(X_U1.X_U4.E_E1)         =   -1.901uA  \   -30.87pA
    I(X_U1.X_U12.X_U3.EOUT)   =   -77.97uA  \   -8.384pA
    I(X_U1.X_U12.X_U2.EOUT)   =   -77.97uA  \   -8.735pA
    I(X_U1.X_U5.X_U4.EOUT)    =   -15.65uA  \   -1.677pA
    I(X_U1.X_U7.X_U15.EOUT)   =   -15.59uA  \   -1.677pA
    I(X_U1.X_U7.X_U16.EOUT)   =   -15.59uA  \   -1.677pA
    I(X_U1.X_U6.X_U1.EVSS_NEW) =   -2.565nA  \   -2.465nA
    I(X_Q1.L1)                =    40.39pA  \    6.033pA
    I(X_Q1.L2)                =   534.97pA  \   918.78pA
    I(X_Q1.L3)                =  -575.37pA  \  -924.81pA
    I(X_Q2.L1)                =    25.70pA  \   -41.21pA
    I(X_Q2.L2)                =   392.52pA  \   928.45pA
    I(X_Q2.L3)                =  -418.22pA  \  -887.24pA
    I(X_D1.L2)                =    5.201pA  \   127.99fA
    I(X_D1.L3)                =   -5.201pA  \  -127.99fA
    I(X_Q3.L2)                =  -105.92pA  \  -499.12pA
    I(X_Q3.L3)                =  -356.17pA  \    35.81pA
    I(X_B1.Lgx)               =   586.94pA  \   325.39pA
    I(X_B1.Ldx)               =   825.49pA  \   894.63pA
    I(X_B1.Lsx)               =  -238.55pA  \  -569.24pA
    IA(X_U1.X_U4.T_T1)        =    1.901uA  \    30.87pA
    IB(X_U1.X_U4.T_T1)        =   -1.901uA  \         0A
    I(V_V1)                   =   -6.719uA  \   -43.21nA
    I(V_V3)                   =   356.17pA  \   -35.81pA
    I(V_V6)                   =   575.37pA  \   924.81pA
    I(V_V7)                   =   827.04pA  \   895.63pA
    I(V_V8)                   =   -1.108nA  \   -1.325nA
    I(V_V9)                   =   418.22pA  \   887.24pA
    I(X_U1.X_U5.V_V17)        =   -1.092nA  \   -1.027nA
    I(X_U1.X_U5.V_V18)        =   -1.092nA  \   -1.027nA
    I(X_U1.X_U5.V_V14)        =   -1.472nA  \   -1.439nA
    I(X_U1.X_U5.V_V16)        =   -1.472nA  \   -1.439nA

  These devices failed to converge:
    X_B1.B1   X_U1.X_U3.EOUT X_U1.X_U12.X_U3.EOUT X_U1.X_U12.X_U2.EOUT 
    X_U1.X_U5.X_U10.E1 X_U1.X_U7.X_U17.E1 X_U1.X_U7.X_U15.EOUT 
    X_U1.X_U7.X_U16.EOUT 

**** Interrupt ****
