
**** 03/01/25 20:06:04 **** PSpice 22.1.0 (15 January 2024) *** ID# 0 ********

 ** Profile: "SCHEMATIC1-sim_design1"  [ C:\USERS\15062\DESKTOP\DESIGN\DESIGN1-PSpiceFiles\SCHEMATIC1\sim_design1.sim ] 


 ****     CIRCUIT DESCRIPTION


******************************************************************************




** Creating circuit file "sim_design1.cir" 
** WARNING: THIS AUTOMATICALLY GENERATED FILE MAY BE OVERWRITTEN BY SUBSEQUENT SIMULATIONS

*Libraries: 
* Profile Libraries :
* Local Libraries :
* From [PSPICE NETLIST] section of D:\Cadence\Spb_data\cdssetup\OrCAD_PSpice\22.1.0\PSpice.ini file:
.lib "C:\Users\15062\Desktop\design\model\OPA333\OPAx333.LIB" 
.lib "C:\Users\15062\Desktop\design\model\OPA2735\OPAx735.LIB" 
.lib "C:\Users\15062\Desktop\design\model\OPAx180\OPAx180.LIB" 
.lib "D:\Cadence\SPB_22.1\tools\capture\library\pspice\CSD18532Q5\CSD18532Q5B.lib" 
.lib "C:\Users\15062\Desktop\design\model\CSD18540Q5B\CSD18540Q5B.lib" 
.lib "C:\Users\15062\Desktop\design\model\LM358-TI\lmx58_lm2904.lib" 
.lib "C:\Users\15062\Desktop\design\model\UCC27323\UCC3895_PSPICE_TRANS\ucc3895.lib" 
.lib "C:\Users\15062\Desktop\design\model\TLV3605\tlv3605.lib" 
.lib "D:\Cadence\SPB_22.1\tools\capture\library\pspice\design_hold_circuit\OPA388\OPAx388.LIB" 
.lib "D:\Cadence\SPB_22.1\tools\capture\library\pspice\design_hold_circuit\LMP7721\LMP7721.LIB" 
.lib "D:\Cadence\SPB_22.1\tools\capture\library\pspice\design_hold_circuit\TLV3601\tlv3601.lib" 
.lib "D:\Cadence\SPB_22.1\tools\capture\library\pspice\design_hold_circuit\REF5045\REF5045.LIB" 
.lib "D:\Cadence\SPB_22.1\tools\capture\library\pspice\design_hold_circuit\ADG1236\adg1236.lib" 
.lib "D:\Cadence\SPB_22.1\tools\capture\library\pspice\design_hold_circuit\THS3491\ths3491.lib" 
.lib "D:\Cadence\SPB_22.1\tools\capture\library\pspice\design_hold_circuit\CSD25404Q3\CSD25404Q3.lib" 
.lib "D:\Cadence\SPB_22.1\tools\capture\library\pspice\design_hold_circuit\CSD17573Q5B\CSD17573Q5B.lib" 
.lib "D:\Cadence\SPB_22.1\tools\capture\library\pspice\design_hold_circuit\TLV3603\tlv3603.lib" 
.lib "D:\Cadence\SPB_22.1\tools\capture\library\pspice\design_hold_circuit\REF5050\REF5050.LIB" 
.lib "D:\Cadence\SPB_22.1\tools\capture\library\pspice\REF5010_PSPICE_AIO\REF5010.LIB" 
.lib "D:\Cadence\SPB_22.1\tools\capture\library\pspice\sbomao2c\OPAx188.LIB" 
.lib "D:\Cadence\SPB_22.1\tools\capture\library\pspice\slpm140b\CSD17577Q5A.lib" 
.lib "D:\Cadence\SPB_22.1\tools\capture\library\pspice\REF5025_PSPICE_AIO\REF5025.LIB" 
.lib "nom.lib" 

*Analysis directives: 
.TRAN  0 500n 0 
.OPTIONS ADVCONV
.OPTIONS ITL1= 1000
.OPTIONS ITL2= 200
.PROBE V(alias(*)) I(alias(*)) W(alias(*)) D(alias(*)) NOISE(alias(*)) 
.INC "..\SCHEMATIC1.net" 



**** INCLUDING SCHEMATIC1.net ****
* source DESIGN1
V_V1         VCC 0 5Vdc
V_V2         N00978 0 0.5Vdc
V_V3         N01040 0  
+EXP 4.5 0 0 20n 1u 20n
X_U1         N01040 N00978 VCC 0 N01162 TLV3601

**** RESUMING sim_design1.cir ****
.END

ERROR(ORPSIM-15461): Incorrect number of interface nodes for X_U1.X_U5.

ERROR(ORPSIM-15461): Incorrect number of interface nodes for X_U1.X_U7.
