
**** 01/09/24 12:32:09 ******* PSpice 17.4.0 (Nov 2018) ******* ID# 0 ********

 ** Profile: "SCHEMATIC1-tset"  [ C:\Modeling\TLV3605_ti\tlv3605-pspicefiles\schematic1\tset.sim ] 


 ****     CIRCUIT DESCRIPTION


******************************************************************************




** Creating circuit file "tset.cir" 
** WARNING: THIS AUTOMATICALLY GENERATED FILE MAY BE OVERWRITTEN BY SUBSEQUENT SIMULATIONS

*Libraries: 
* Profile Libraries :
* Local Libraries :
.LIB "../../../tlv3605.lib" 
* From [PSPICE NETLIST] section of C:\SPB_DATA\cdssetup\OrCAD_PSpice\17.4.0\PSpice.ini file:
.lib "nom.lib" 

*Analysis directives: 
.TRAN  0 40n 0 SKIPBP 
.OPTIONS ADVCONV
.OPTIONS FILEMODELSEARCH
.PROBE64 V(alias(*)) I(alias(*)) W(alias(*)) D(alias(*)) NOISE(alias(*)) 
.INC "..\SCHEMATIC1.net" 



**** INCLUDING SCHEMATIC1.net ****
* source TLV3605
.EXTERNAL INPUT V-
.EXTERNAL INPUT VCCI
.EXTERNAL INPUT SHDN
.EXTERNAL INPUT VCCO
.EXTERNAL INPUT OUTN
.EXTERNAL INPUT OUTP
.EXTERNAL INPUT IN-
.EXTERNAL INPUT IN+
R_R2         0 V-  1m TC=0,0 
V_V1         IN+ 0  
+SIN 1.65 50m 100Meg 0 0 0
V_VINN2         VCCO 0 3.3
R_R4         0 N8479570  150k TC=0,0 
R_R5         OUTN OUTP  100 TC=0,0 
V_VINN3         VCCI 0 3.3
V_VINN4         SHDN 0 3.3
V_VINN5         IN- 0 1.65
X_U1         IN+ IN- N8479570 SHDN VCCI VCCO V- OUTP OUTN TLV3605

**** RESUMING tset.cir ****
.END

**** 01/09/24 12:32:09 ******* PSpice 17.4.0 (Nov 2018) ******* ID# 0 ********

 ** Profile: "SCHEMATIC1-tset"  [ C:\Modeling\TLV3605_ti\tlv3605-pspicefiles\schematic1\tset.sim ] 


 ****     Voltage Controlled Switch MODEL PARAMETERS


******************************************************************************




               X_U1.X_U5.X_S16._S16 
         RON    1            
        ROFF    1.000000E+12 
         VON    0            
        VOFF    1            


               X_U1.X_U5.X_S6._S6 
         RON    1            
        ROFF    1.000000E+12 
         VON    2.5          
        VOFF    1.25         


               X_U1.X_U5.X_S3._S3 
         RON    1            
        ROFF    1.000000E+12 
         VON    2.5          
        VOFF    1.25         


               X_U1.X_U5.X_S17._S17 
         RON    1            
        ROFF    1.000000E+12 
         VON    0            
        VOFF    1            


               X_U1.X_U5.X_S4._S4 
         RON    1            
        ROFF    1.000000E+12 
         VON   -1.25         
        VOFF   -2.5          


               X_U1.X_U5.X_S5._S5 
         RON    1            
        ROFF    1.000000E+12 
         VON   -1.25         
        VOFF   -2.5          



          JOB CONCLUDED

**** 01/09/24 12:32:09 ******* PSpice 17.4.0 (Nov 2018) ******* ID# 0 ********

 ** Profile: "SCHEMATIC1-tset"  [ C:\Modeling\TLV3605_ti\tlv3605-pspicefiles\schematic1\tset.sim ] 


 ****     JOB STATISTICS SUMMARY


******************************************************************************



  License check-out time            =      505.00
  Total job time (using Solver 1)   =         .27
